<?xml version="1.0" encoding="UTF-8"?>

<!-- generated on 11/05/20 14:56:35 by Eclipse SUMO netedit Version 1.7.0
<configuration xmlns:xsi="http://www.w3.org/2001/XMLSchema-instance" xsi:noNamespaceSchemaLocation="http://sumo.dlr.de/xsd/netconvertConfiguration.xsd">

    <input>
        <sumo-net-file value="C:\Users\MGK\PycharmProjects\simple-traffic-lights\environments\2v2\2v2.net.xml"/>
    </input>

    <output>
        <output-file value="C:\Users\MGK\PycharmProjects\simple-traffic-lights\environments\2v2\2v2.net.xml"/>
    </output>

    <processing>
        <geometry.min-radius.fix.railways value="false"/>
        <geometry.max-grade.fix value="false"/>
        <offset.disable-normalization value="true"/>
        <lefthand value="false"/>
    </processing>

    <junctions>
        <no-turnarounds value="true"/>
        <junctions.corner-detail value="5"/>
        <junctions.limit-turn-speed value="5.5"/>
        <rectangular-lane-cut value="false"/>
    </junctions>

    <pedestrian>
        <walkingareas value="false"/>
    </pedestrian>

    <report>
        <aggregate-warnings value="5"/>
    </report>

</configuration>
-->

<net version="1.6" junctionCornerDetail="5" limitTurnSpeed="5.50" xmlns:xsi="http://www.w3.org/2001/XMLSchema-instance" xsi:noNamespaceSchemaLocation="http://sumo.dlr.de/xsd/net_file.xsd">

    <location netOffset="0.00,0.00" convBoundary="-100.00,-100.00,200.00,200.00" origBoundary="-10000000000.00,-10000000000.00,10000000000.00,10000000000.00" projParameter="!"/>

    <edge id=":j0_0" function="internal">
        <lane id=":j0_0_0" index="0" speed="6.51" length="9.03" shape="-8.00,113.60 -8.35,111.15 -9.40,109.40 -11.15,108.35 -13.60,108.00"/>
    </edge>
    <edge id=":j0_1" function="internal">
        <lane id=":j0_1_0" index="0" speed="13.89" length="27.20" shape="-4.80,113.60 -4.80,86.40"/>
    </edge>
    <edge id=":j0_2" function="internal">
        <lane id=":j0_2_0" index="0" speed="10.36" length="24.51" shape="-1.60,113.60 -0.65,106.95 2.20,102.20 6.95,99.35 13.60,98.40"/>
    </edge>
    <edge id=":j0_3" function="internal">
        <lane id=":j0_3_0" index="0" speed="6.51" length="9.03" shape="13.60,108.00 11.15,108.35 9.40,109.40 8.35,111.15 8.00,113.60"/>
    </edge>
    <edge id=":j0_4" function="internal">
        <lane id=":j0_4_0" index="0" speed="13.89" length="27.20" shape="13.60,104.80 -13.60,104.80"/>
    </edge>
    <edge id=":j0_5" function="internal">
        <lane id=":j0_5_0" index="0" speed="10.36" length="24.51" shape="13.60,101.60 6.95,100.65 2.20,97.80 -0.65,93.05 -1.60,86.40"/>
    </edge>
    <edge id=":j0_6" function="internal">
        <lane id=":j0_6_0" index="0" speed="6.51" length="9.03" shape="8.00,86.40 8.35,88.85 9.40,90.60 11.15,91.65 13.60,92.00"/>
    </edge>
    <edge id=":j0_7" function="internal">
        <lane id=":j0_7_0" index="0" speed="13.89" length="27.20" shape="4.80,86.40 4.80,113.60"/>
    </edge>
    <edge id=":j0_8" function="internal">
        <lane id=":j0_8_0" index="0" speed="10.36" length="24.51" shape="1.60,86.40 0.65,93.05 -2.20,97.80 -6.95,100.65 -13.60,101.60"/>
    </edge>
    <edge id=":j0_9" function="internal">
        <lane id=":j0_9_0" index="0" speed="6.51" length="9.03" shape="-13.60,92.00 -11.15,91.65 -9.40,90.60 -8.35,88.85 -8.00,86.40"/>
    </edge>
    <edge id=":j0_10" function="internal">
        <lane id=":j0_10_0" index="0" speed="13.89" length="27.20" shape="-13.60,95.20 13.60,95.20"/>
    </edge>
    <edge id=":j0_11" function="internal">
        <lane id=":j0_11_0" index="0" speed="10.36" length="24.51" shape="-13.60,98.40 -6.95,99.35 -2.20,102.20 0.65,106.95 1.60,113.60"/>
    </edge>
    <edge id=":j1_0" function="internal">
        <lane id=":j1_0_0" index="0" speed="6.51" length="9.03" shape="92.00,113.60 91.65,111.15 90.60,109.40 88.85,108.35 86.40,108.00"/>
    </edge>
    <edge id=":j1_1" function="internal">
        <lane id=":j1_1_0" index="0" speed="13.89" length="27.20" shape="95.20,113.60 95.20,86.40"/>
    </edge>
    <edge id=":j1_2" function="internal">
        <lane id=":j1_2_0" index="0" speed="10.36" length="24.51" shape="98.40,113.60 99.35,106.95 102.20,102.20 106.95,99.35 113.60,98.40"/>
    </edge>
    <edge id=":j1_3" function="internal">
        <lane id=":j1_3_0" index="0" speed="6.51" length="9.03" shape="113.60,108.00 111.15,108.35 109.40,109.40 108.35,111.15 108.00,113.60"/>
    </edge>
    <edge id=":j1_4" function="internal">
        <lane id=":j1_4_0" index="0" speed="13.89" length="27.20" shape="113.60,104.80 86.40,104.80"/>
    </edge>
    <edge id=":j1_5" function="internal">
        <lane id=":j1_5_0" index="0" speed="10.36" length="24.51" shape="113.60,101.60 106.95,100.65 102.20,97.80 99.35,93.05 98.40,86.40"/>
    </edge>
    <edge id=":j1_6" function="internal">
        <lane id=":j1_6_0" index="0" speed="6.51" length="9.03" shape="108.00,86.40 108.35,88.85 109.40,90.60 111.15,91.65 113.60,92.00"/>
    </edge>
    <edge id=":j1_7" function="internal">
        <lane id=":j1_7_0" index="0" speed="13.89" length="27.20" shape="104.80,86.40 104.80,113.60"/>
    </edge>
    <edge id=":j1_8" function="internal">
        <lane id=":j1_8_0" index="0" speed="10.36" length="24.51" shape="101.60,86.40 100.65,93.05 97.80,97.80 93.05,100.65 86.40,101.60"/>
    </edge>
    <edge id=":j1_9" function="internal">
        <lane id=":j1_9_0" index="0" speed="6.51" length="9.03" shape="86.40,92.00 88.85,91.65 90.60,90.60 91.65,88.85 92.00,86.40"/>
    </edge>
    <edge id=":j1_10" function="internal">
        <lane id=":j1_10_0" index="0" speed="13.89" length="27.20" shape="86.40,95.20 113.60,95.20"/>
    </edge>
    <edge id=":j1_11" function="internal">
        <lane id=":j1_11_0" index="0" speed="10.36" length="24.51" shape="86.40,98.40 93.05,99.35 97.80,102.20 100.65,106.95 101.60,113.60"/>
    </edge>
    <edge id=":j2_0" function="internal">
        <lane id=":j2_0_0" index="0" speed="6.51" length="9.03" shape="-8.00,13.60 -8.35,11.15 -9.40,9.40 -11.15,8.35 -13.60,8.00"/>
    </edge>
    <edge id=":j2_1" function="internal">
        <lane id=":j2_1_0" index="0" speed="13.89" length="27.20" shape="-4.80,13.60 -4.80,-13.60"/>
    </edge>
    <edge id=":j2_2" function="internal">
        <lane id=":j2_2_0" index="0" speed="10.36" length="24.51" shape="-1.60,13.60 -0.65,6.95 2.20,2.20 6.95,-0.65 13.60,-1.60"/>
    </edge>
    <edge id=":j2_3" function="internal">
        <lane id=":j2_3_0" index="0" speed="6.51" length="9.03" shape="13.60,8.00 11.15,8.35 9.40,9.40 8.35,11.15 8.00,13.60"/>
    </edge>
    <edge id=":j2_4" function="internal">
        <lane id=":j2_4_0" index="0" speed="13.89" length="27.20" shape="13.60,4.80 -13.60,4.80"/>
    </edge>
    <edge id=":j2_5" function="internal">
        <lane id=":j2_5_0" index="0" speed="10.36" length="24.51" shape="13.60,1.60 6.95,0.65 2.20,-2.20 -0.65,-6.95 -1.60,-13.60"/>
    </edge>
    <edge id=":j2_6" function="internal">
        <lane id=":j2_6_0" index="0" speed="6.51" length="9.03" shape="8.00,-13.60 8.35,-11.15 9.40,-9.40 11.15,-8.35 13.60,-8.00"/>
    </edge>
    <edge id=":j2_7" function="internal">
        <lane id=":j2_7_0" index="0" speed="13.89" length="27.20" shape="4.80,-13.60 4.80,13.60"/>
    </edge>
    <edge id=":j2_8" function="internal">
        <lane id=":j2_8_0" index="0" speed="10.36" length="24.51" shape="1.60,-13.60 0.65,-6.95 -2.20,-2.20 -6.95,0.65 -13.60,1.60"/>
    </edge>
    <edge id=":j2_9" function="internal">
        <lane id=":j2_9_0" index="0" speed="6.51" length="9.03" shape="-13.60,-8.00 -11.15,-8.35 -9.40,-9.40 -8.35,-11.15 -8.00,-13.60"/>
    </edge>
    <edge id=":j2_10" function="internal">
        <lane id=":j2_10_0" index="0" speed="13.89" length="27.20" shape="-13.60,-4.80 13.60,-4.80"/>
    </edge>
    <edge id=":j2_11" function="internal">
        <lane id=":j2_11_0" index="0" speed="10.36" length="24.51" shape="-13.60,-1.60 -6.95,-0.65 -2.20,2.20 0.65,6.95 1.60,13.60"/>
    </edge>
    <edge id=":j3_0" function="internal">
        <lane id=":j3_0_0" index="0" speed="6.51" length="9.03" shape="92.00,13.60 91.65,11.15 90.60,9.40 88.85,8.35 86.40,8.00"/>
    </edge>
    <edge id=":j3_1" function="internal">
        <lane id=":j3_1_0" index="0" speed="13.89" length="27.20" shape="95.20,13.60 95.20,-13.60"/>
    </edge>
    <edge id=":j3_2" function="internal">
        <lane id=":j3_2_0" index="0" speed="10.36" length="24.51" shape="98.40,13.60 99.35,6.95 102.20,2.20 106.95,-0.65 113.60,-1.60"/>
    </edge>
    <edge id=":j3_3" function="internal">
        <lane id=":j3_3_0" index="0" speed="6.51" length="9.03" shape="113.60,8.00 111.15,8.35 109.40,9.40 108.35,11.15 108.00,13.60"/>
    </edge>
    <edge id=":j3_4" function="internal">
        <lane id=":j3_4_0" index="0" speed="13.89" length="27.20" shape="113.60,4.80 86.40,4.80"/>
    </edge>
    <edge id=":j3_5" function="internal">
        <lane id=":j3_5_0" index="0" speed="10.36" length="24.51" shape="113.60,1.60 106.95,0.65 102.20,-2.20 99.35,-6.95 98.40,-13.60"/>
    </edge>
    <edge id=":j3_6" function="internal">
        <lane id=":j3_6_0" index="0" speed="6.51" length="9.03" shape="108.00,-13.60 108.35,-11.15 109.40,-9.40 111.15,-8.35 113.60,-8.00"/>
    </edge>
    <edge id=":j3_7" function="internal">
        <lane id=":j3_7_0" index="0" speed="13.89" length="27.20" shape="104.80,-13.60 104.80,13.60"/>
    </edge>
    <edge id=":j3_8" function="internal">
        <lane id=":j3_8_0" index="0" speed="10.36" length="24.51" shape="101.60,-13.60 100.65,-6.95 97.80,-2.20 93.05,0.65 86.40,1.60"/>
    </edge>
    <edge id=":j3_9" function="internal">
        <lane id=":j3_9_0" index="0" speed="6.51" length="9.03" shape="86.40,-8.00 88.85,-8.35 90.60,-9.40 91.65,-11.15 92.00,-13.60"/>
    </edge>
    <edge id=":j3_10" function="internal">
        <lane id=":j3_10_0" index="0" speed="13.89" length="27.20" shape="86.40,-4.80 113.60,-4.80"/>
    </edge>
    <edge id=":j3_11" function="internal">
        <lane id=":j3_11_0" index="0" speed="10.36" length="24.51" shape="86.40,-1.60 93.05,-0.65 97.80,2.20 100.65,6.95 101.60,13.60"/>
    </edge>

    <edge id="-gneE21" from="j1" to="j0" priority="-1">
        <lane id="-gneE21_0" index="0" speed="13.89" length="72.80" shape="86.40,108.00 13.60,108.00"/>
        <lane id="-gneE21_1" index="1" speed="13.89" length="72.80" shape="86.40,104.80 13.60,104.80"/>
        <lane id="-gneE21_2" index="2" speed="13.89" length="72.80" shape="86.40,101.60 13.60,101.60"/>
    </edge>
    <edge id="-gneE22" from="j3" to="j1" priority="-1">
        <lane id="-gneE22_0" index="0" speed="13.89" length="72.80" shape="108.00,13.60 108.00,86.40"/>
        <lane id="-gneE22_1" index="1" speed="13.89" length="72.80" shape="104.80,13.60 104.80,86.40"/>
        <lane id="-gneE22_2" index="2" speed="13.89" length="72.80" shape="101.60,13.60 101.60,86.40"/>
    </edge>
    <edge id="-gneE23" from="j2" to="j3" priority="-1">
        <lane id="-gneE23_0" index="0" speed="13.89" length="72.80" shape="13.60,-8.00 86.40,-8.00"/>
        <lane id="-gneE23_1" index="1" speed="13.89" length="72.80" shape="13.60,-4.80 86.40,-4.80"/>
        <lane id="-gneE23_2" index="2" speed="13.89" length="72.80" shape="13.60,-1.60 86.40,-1.60"/>
    </edge>
    <edge id="-gneE24" from="j0" to="j2" priority="-1">
        <lane id="-gneE24_0" index="0" speed="13.89" length="72.80" shape="-8.00,86.40 -8.00,13.60"/>
        <lane id="-gneE24_1" index="1" speed="13.89" length="72.80" shape="-4.80,86.40 -4.80,13.60"/>
        <lane id="-gneE24_2" index="2" speed="13.89" length="72.80" shape="-1.60,86.40 -1.60,13.60"/>
    </edge>
    <edge id="-gneE25" from="de7" to="j0" priority="-1">
        <lane id="-gneE25_0" index="0" speed="13.89" length="86.40" shape="-100.00,92.00 -13.60,92.00"/>
        <lane id="-gneE25_1" index="1" speed="13.89" length="86.40" shape="-100.00,95.20 -13.60,95.20"/>
        <lane id="-gneE25_2" index="2" speed="13.89" length="86.40" shape="-100.00,98.40 -13.60,98.40"/>
    </edge>
    <edge id="-gneE27" from="j0" to="de0" priority="-1">
        <lane id="-gneE27_0" index="0" speed="13.89" length="86.40" shape="8.00,113.60 8.00,200.00"/>
        <lane id="-gneE27_1" index="1" speed="13.89" length="86.40" shape="4.80,113.60 4.80,200.00"/>
        <lane id="-gneE27_2" index="2" speed="13.89" length="86.40" shape="1.60,113.60 1.60,200.00"/>
    </edge>
    <edge id="-gneE28" from="j1" to="de1" priority="-1">
        <lane id="-gneE28_0" index="0" speed="13.89" length="86.40" shape="108.00,113.60 108.00,200.00"/>
        <lane id="-gneE28_1" index="1" speed="13.89" length="86.40" shape="104.80,113.60 104.80,200.00"/>
        <lane id="-gneE28_2" index="2" speed="13.89" length="86.40" shape="101.60,113.60 101.60,200.00"/>
    </edge>
    <edge id="-gneE29" from="j1" to="de2" priority="-1">
        <lane id="-gneE29_0" index="0" speed="13.89" length="86.40" shape="113.60,92.00 200.00,92.00"/>
        <lane id="-gneE29_1" index="1" speed="13.89" length="86.40" shape="113.60,95.20 200.00,95.20"/>
        <lane id="-gneE29_2" index="2" speed="13.89" length="86.40" shape="113.60,98.40 200.00,98.40"/>
    </edge>
    <edge id="-gneE30" from="j3" to="de3" priority="-1">
        <lane id="-gneE30_0" index="0" speed="13.89" length="86.40" shape="113.60,-8.00 200.00,-8.00"/>
        <lane id="-gneE30_1" index="1" speed="13.89" length="86.40" shape="113.60,-4.80 200.00,-4.80"/>
        <lane id="-gneE30_2" index="2" speed="13.89" length="86.40" shape="113.60,-1.60 200.00,-1.60"/>
    </edge>
    <edge id="-gneE31" from="j3" to="de4" priority="-1">
        <lane id="-gneE31_0" index="0" speed="13.89" length="86.40" shape="92.00,-13.60 92.00,-100.00"/>
        <lane id="-gneE31_1" index="1" speed="13.89" length="86.40" shape="95.20,-13.60 95.20,-100.00"/>
        <lane id="-gneE31_2" index="2" speed="13.89" length="86.40" shape="98.40,-13.60 98.40,-100.00"/>
    </edge>
    <edge id="-gneE32" from="j2" to="de5" priority="-1">
        <lane id="-gneE32_0" index="0" speed="13.89" length="86.40" shape="-8.00,-13.60 -8.00,-100.00"/>
        <lane id="-gneE32_1" index="1" speed="13.89" length="86.40" shape="-4.80,-13.60 -4.80,-100.00"/>
        <lane id="-gneE32_2" index="2" speed="13.89" length="86.40" shape="-1.60,-13.60 -1.60,-100.00"/>
    </edge>
    <edge id="-gneE33" from="j2" to="de6" priority="-1">
        <lane id="-gneE33_0" index="0" speed="13.89" length="86.40" shape="-13.60,8.00 -100.00,8.00"/>
        <lane id="-gneE33_1" index="1" speed="13.89" length="86.40" shape="-13.60,4.80 -100.00,4.80"/>
        <lane id="-gneE33_2" index="2" speed="13.89" length="86.40" shape="-13.60,1.60 -100.00,1.60"/>
    </edge>
    <edge id="gneE21" from="j0" to="j1" priority="-1">
        <lane id="gneE21_0" index="0" speed="13.89" length="72.80" shape="13.60,92.00 86.40,92.00"/>
        <lane id="gneE21_1" index="1" speed="13.89" length="72.80" shape="13.60,95.20 86.40,95.20"/>
        <lane id="gneE21_2" index="2" speed="13.89" length="72.80" shape="13.60,98.40 86.40,98.40"/>
    </edge>
    <edge id="gneE22" from="j1" to="j3" priority="-1">
        <lane id="gneE22_0" index="0" speed="13.89" length="72.80" shape="92.00,86.40 92.00,13.60"/>
        <lane id="gneE22_1" index="1" speed="13.89" length="72.80" shape="95.20,86.40 95.20,13.60"/>
        <lane id="gneE22_2" index="2" speed="13.89" length="72.80" shape="98.40,86.40 98.40,13.60"/>
    </edge>
    <edge id="gneE23" from="j3" to="j2" priority="-1">
        <lane id="gneE23_0" index="0" speed="13.89" length="72.80" shape="86.40,8.00 13.60,8.00"/>
        <lane id="gneE23_1" index="1" speed="13.89" length="72.80" shape="86.40,4.80 13.60,4.80"/>
        <lane id="gneE23_2" index="2" speed="13.89" length="72.80" shape="86.40,1.60 13.60,1.60"/>
    </edge>
    <edge id="gneE24" from="j2" to="j0" priority="-1">
        <lane id="gneE24_0" index="0" speed="13.89" length="72.80" shape="8.00,13.60 8.00,86.40"/>
        <lane id="gneE24_1" index="1" speed="13.89" length="72.80" shape="4.80,13.60 4.80,86.40"/>
        <lane id="gneE24_2" index="2" speed="13.89" length="72.80" shape="1.60,13.60 1.60,86.40"/>
    </edge>
    <edge id="gneE25" from="j0" to="de7" priority="-1">
        <lane id="gneE25_0" index="0" speed="13.89" length="86.40" shape="-13.60,108.00 -100.00,108.00"/>
        <lane id="gneE25_1" index="1" speed="13.89" length="86.40" shape="-13.60,104.80 -100.00,104.80"/>
        <lane id="gneE25_2" index="2" speed="13.89" length="86.40" shape="-13.60,101.60 -100.00,101.60"/>
    </edge>
    <edge id="gneE27" from="de0" to="j0" priority="-1">
        <lane id="gneE27_0" index="0" speed="13.89" length="86.40" shape="-8.00,200.00 -8.00,113.60"/>
        <lane id="gneE27_1" index="1" speed="13.89" length="86.40" shape="-4.80,200.00 -4.80,113.60"/>
        <lane id="gneE27_2" index="2" speed="13.89" length="86.40" shape="-1.60,200.00 -1.60,113.60"/>
    </edge>
    <edge id="gneE28" from="de1" to="j1" priority="-1">
        <lane id="gneE28_0" index="0" speed="13.89" length="86.40" shape="92.00,200.00 92.00,113.60"/>
        <lane id="gneE28_1" index="1" speed="13.89" length="86.40" shape="95.20,200.00 95.20,113.60"/>
        <lane id="gneE28_2" index="2" speed="13.89" length="86.40" shape="98.40,200.00 98.40,113.60"/>
    </edge>
    <edge id="gneE29" from="de2" to="j1" priority="-1">
        <lane id="gneE29_0" index="0" speed="13.89" length="86.40" shape="200.00,108.00 113.60,108.00"/>
        <lane id="gneE29_1" index="1" speed="13.89" length="86.40" shape="200.00,104.80 113.60,104.80"/>
        <lane id="gneE29_2" index="2" speed="13.89" length="86.40" shape="200.00,101.60 113.60,101.60"/>
    </edge>
    <edge id="gneE30" from="de3" to="j3" priority="-1">
        <lane id="gneE30_0" index="0" speed="13.89" length="86.40" shape="200.00,8.00 113.60,8.00"/>
        <lane id="gneE30_1" index="1" speed="13.89" length="86.40" shape="200.00,4.80 113.60,4.80"/>
        <lane id="gneE30_2" index="2" speed="13.89" length="86.40" shape="200.00,1.60 113.60,1.60"/>
    </edge>
    <edge id="gneE31" from="de4" to="j3" priority="-1">
        <lane id="gneE31_0" index="0" speed="13.89" length="86.40" shape="108.00,-100.00 108.00,-13.60"/>
        <lane id="gneE31_1" index="1" speed="13.89" length="86.40" shape="104.80,-100.00 104.80,-13.60"/>
        <lane id="gneE31_2" index="2" speed="13.89" length="86.40" shape="101.60,-100.00 101.60,-13.60"/>
    </edge>
    <edge id="gneE32" from="de5" to="j2" priority="-1">
        <lane id="gneE32_0" index="0" speed="13.89" length="86.40" shape="8.00,-100.00 8.00,-13.60"/>
        <lane id="gneE32_1" index="1" speed="13.89" length="86.40" shape="4.80,-100.00 4.80,-13.60"/>
        <lane id="gneE32_2" index="2" speed="13.89" length="86.40" shape="1.60,-100.00 1.60,-13.60"/>
    </edge>
    <edge id="gneE33" from="de6" to="j2" priority="-1">
        <lane id="gneE33_0" index="0" speed="13.89" length="86.40" shape="-100.00,-8.00 -13.60,-8.00"/>
        <lane id="gneE33_1" index="1" speed="13.89" length="86.40" shape="-100.00,-4.80 -13.60,-4.80"/>
        <lane id="gneE33_2" index="2" speed="13.89" length="86.40" shape="-100.00,-1.60 -13.60,-1.60"/>
    </edge>

    <tlLogic id="gneJ25" type="static" programID="0" offset="0">
        <phase duration="40" state="GrrGGrGrrGGr"/>
        <phase duration="3"  state="GrrGyrGrrGyr"/>
        <phase duration="40" state="GrrGGGGrrGrr"/>
        <phase duration="3"  state="GrrGyyGrrGrr"/>
        <phase duration="40" state="GrrGrrGrrGGG"/>
        <phase duration="3"  state="GrrGrrGrrGyy"/>
        <phase duration="40" state="GrrGrGGrrGrG"/>
        <phase duration="3"  state="GrrGryGrrGry"/>
        <phase duration="40" state="GGrGrrGGrGrr"/>
        <phase duration="3"  state="GyrGrrGyrGrr"/>
        <phase duration="40" state="GrrGrrGGGGrr"/>
        <phase duration="3"  state="GrrGrrGyyGrr"/>
        <phase duration="40" state="GGGGrrGrrGrr"/>
        <phase duration="3"  state="GyyGrrGrrGrr"/>
        <phase duration="40" state="GrGGrrGrGGrr"/>
        <phase duration="3"  state="GryGrrGryGrr"/>
    </tlLogic>
    <tlLogic id="gneJ26" type="static" programID="0" offset="0">
        <phase duration="40" state="GrrGGrGrrGGr"/>
        <phase duration="3"  state="GrrGyrGrrGyr"/>
        <phase duration="40" state="GrrGGGGrrGrr"/>
        <phase duration="3"  state="GrrGyyGrrGrr"/>
        <phase duration="40" state="GrrGrrGrrGGG"/>
        <phase duration="3"  state="GrrGrrGrrGyy"/>
        <phase duration="40" state="GrrGrGGrrGrG"/>
        <phase duration="3"  state="GrrGryGrrGry"/>
        <phase duration="40" state="GGrGrrGGrGrr"/>
        <phase duration="3"  state="GyrGrrGyrGrr"/>
        <phase duration="40" state="GrrGrrGGGGrr"/>
        <phase duration="3"  state="GrrGrrGyyGrr"/>
        <phase duration="40" state="GGGGrrGrrGrr"/>
        <phase duration="3"  state="GyyGrrGrrGrr"/>
        <phase duration="40" state="GrGGrrGrGGrr"/>
        <phase duration="3"  state="GryGrrGryGrr"/>
    </tlLogic>
    <tlLogic id="gneJ27" type="static" programID="0" offset="0">
        <phase duration="40" state="GrrGGrGrrGGr"/>
        <phase duration="3"  state="GrrGyrGrrGyr"/>
        <phase duration="40" state="GrrGGGGrrGrr"/>
        <phase duration="3"  state="GrrGyyGrrGrr"/>
        <phase duration="40" state="GrrGrrGrrGGG"/>
        <phase duration="3"  state="GrrGrrGrrGyy"/>
        <phase duration="40" state="GrrGrGGrrGrG"/>
        <phase duration="3"  state="GrrGryGrrGry"/>
        <phase duration="40" state="GGrGrrGGrGrr"/>
        <phase duration="3"  state="GyrGrrGyrGrr"/>
        <phase duration="40" state="GrrGrrGGGGrr"/>
        <phase duration="3"  state="GrrGrrGyyGrr"/>
        <phase duration="40" state="GGGGrrGrrGrr"/>
        <phase duration="3"  state="GyyGrrGrrGrr"/>
        <phase duration="40" state="GrGGrrGrGGrr"/>
        <phase duration="3"  state="GryGrrGryGrr"/>
    </tlLogic>
    <tlLogic id="gneJ28" type="static" programID="0" offset="0">
        <phase duration="40" state="GrrGGrGrrGGr"/>
        <phase duration="3"  state="GrrGyrGrrGyr"/>
        <phase duration="40" state="GrrGGGGrrGrr"/>
        <phase duration="3"  state="GrrGyyGrrGrr"/>
        <phase duration="40" state="GrrGrrGrrGGG"/>
        <phase duration="3"  state="GrrGrrGrrGyy"/>
        <phase duration="40" state="GrrGrGGrrGrG"/>
        <phase duration="3"  state="GrrGryGrrGry"/>
        <phase duration="40" state="GGrGrrGGrGrr"/>
        <phase duration="3"  state="GyrGrrGyrGrr"/>
        <phase duration="40" state="GrrGrrGGGGrr"/>
        <phase duration="3"  state="GrrGrrGyyGrr"/>
        <phase duration="40" state="GGGGrrGrrGrr"/>
        <phase duration="3"  state="GyyGrrGrrGrr"/>
        <phase duration="40" state="GrGGrrGrGGrr"/>
        <phase duration="3"  state="GryGrrGryGrr"/>
    </tlLogic>

    <junction id="de0" type="dead_end" x="0.00" y="200.00" incLanes="-gneE27_0 -gneE27_1 -gneE27_2" intLanes="" shape="0.00,200.00 9.60,200.00 0.00,200.00"/>
    <junction id="de1" type="dead_end" x="100.00" y="200.00" incLanes="-gneE28_0 -gneE28_1 -gneE28_2" intLanes="" shape="100.00,200.00 109.60,200.00 100.00,200.00"/>
    <junction id="de2" type="dead_end" x="200.00" y="100.00" incLanes="-gneE29_0 -gneE29_1 -gneE29_2" intLanes="" shape="200.00,100.00 200.00,90.40 200.00,100.00"/>
    <junction id="de3" type="dead_end" x="200.00" y="0.00" incLanes="-gneE30_0 -gneE30_1 -gneE30_2" intLanes="" shape="200.00,0.00 200.00,-9.60 200.00,0.00"/>
    <junction id="de4" type="dead_end" x="100.00" y="-100.00" incLanes="-gneE31_0 -gneE31_1 -gneE31_2" intLanes="" shape="100.00,-100.00 90.40,-100.00 100.00,-100.00"/>
    <junction id="de5" type="dead_end" x="0.00" y="-100.00" incLanes="-gneE32_0 -gneE32_1 -gneE32_2" intLanes="" shape="0.00,-100.00 -9.60,-100.00 0.00,-100.00"/>
    <junction id="de6" type="dead_end" x="-100.00" y="0.00" incLanes="-gneE33_0 -gneE33_1 -gneE33_2" intLanes="" shape="-100.00,0.00 -100.00,9.60 -100.00,0.00"/>
    <junction id="de7" type="dead_end" x="-100.00" y="100.00" incLanes="gneE25_0 gneE25_1 gneE25_2" intLanes="" shape="-100.00,100.00 -100.00,109.60 -100.00,100.00"/>
    <junction id="j0" type="traffic_light" x="0.00" y="100.00" incLanes="gneE27_0 gneE27_1 gneE27_2 -gneE21_0 -gneE21_1 -gneE21_2 gneE24_0 gneE24_1 gneE24_2 -gneE25_0 -gneE25_1 -gneE25_2" intLanes=":j0_0_0 :j0_1_0 :j0_2_0 :j0_3_0 :j0_4_0 :j0_5_0 :j0_6_0 :j0_7_0 :j0_8_0 :j0_9_0 :j0_10_0 :j0_11_0" shape="-9.60,113.60 9.60,113.60 10.04,111.38 10.60,110.60 11.38,110.04 12.38,109.71 13.60,109.60 13.60,90.40 11.38,89.96 10.60,89.40 10.04,88.62 9.71,87.62 9.60,86.40 -9.60,86.40 -10.04,88.62 -10.60,89.40 -11.38,89.96 -12.38,90.29 -13.60,90.40 -13.60,109.60 -11.38,110.04 -10.60,110.60 -10.04,111.38 -9.71,112.38">
        <request index="0"  response="000000000000" foes="000000000000" cont="0"/>
        <request index="1"  response="000000000000" foes="110100010000" cont="0"/>
        <request index="2"  response="000010000000" foes="100010110000" cont="0"/>
        <request index="3"  response="000000000000" foes="000000000000" cont="0"/>
        <request index="4"  response="000010000110" foes="100010000110" cont="0"/>
        <request index="5"  response="010110000100" foes="010110000100" cont="0"/>
        <request index="6"  response="000000000000" foes="000000000000" cont="0"/>
        <request index="7"  response="000000000000" foes="010000110100" cont="0"/>
        <request index="8"  response="000000000010" foes="110000100010" cont="0"/>
        <request index="9"  response="000000000000" foes="000000000000" cont="0"/>
        <request index="10" response="000110000010" foes="000110100010" cont="0"/>
        <request index="11" response="000100010110" foes="000100010110" cont="0"/>
    </junction>
    <junction id="j1" type="traffic_light" x="100.00" y="100.00" incLanes="gneE28_0 gneE28_1 gneE28_2 gneE29_0 gneE29_1 gneE29_2 -gneE22_0 -gneE22_1 -gneE22_2 gneE21_0 gneE21_1 gneE21_2" intLanes=":j1_0_0 :j1_1_0 :j1_2_0 :j1_3_0 :j1_4_0 :j1_5_0 :j1_6_0 :j1_7_0 :j1_8_0 :j1_9_0 :j1_10_0 :j1_11_0" shape="90.40,113.60 109.60,113.60 110.04,111.38 110.60,110.60 111.38,110.04 112.38,109.71 113.60,109.60 113.60,90.40 111.38,89.96 110.60,89.40 110.04,88.62 109.71,87.62 109.60,86.40 90.40,86.40 89.96,88.62 89.40,89.40 88.62,89.96 87.62,90.29 86.40,90.40 86.40,109.60 88.62,110.04 89.40,110.60 89.96,111.38 90.29,112.38">
        <request index="0"  response="000000000000" foes="000000000000" cont="0"/>
        <request index="1"  response="000000000000" foes="110100010000" cont="0"/>
        <request index="2"  response="000010000000" foes="100010110000" cont="0"/>
        <request index="3"  response="000000000000" foes="000000000000" cont="0"/>
        <request index="4"  response="000010000110" foes="100010000110" cont="0"/>
        <request index="5"  response="010110000100" foes="010110000100" cont="0"/>
        <request index="6"  response="000000000000" foes="000000000000" cont="0"/>
        <request index="7"  response="000000000000" foes="010000110100" cont="0"/>
        <request index="8"  response="000000000010" foes="110000100010" cont="0"/>
        <request index="9"  response="000000000000" foes="000000000000" cont="0"/>
        <request index="10" response="000110000010" foes="000110100010" cont="0"/>
        <request index="11" response="000100010110" foes="000100010110" cont="0"/>
    </junction>
    <junction id="j2" type="traffic_light" x="0.00" y="0.00" incLanes="-gneE24_0 -gneE24_1 -gneE24_2 gneE23_0 gneE23_1 gneE23_2 gneE32_0 gneE32_1 gneE32_2 gneE33_0 gneE33_1 gneE33_2" intLanes=":j2_0_0 :j2_1_0 :j2_2_0 :j2_3_0 :j2_4_0 :j2_5_0 :j2_6_0 :j2_7_0 :j2_8_0 :j2_9_0 :j2_10_0 :j2_11_0" shape="-9.60,13.60 9.60,13.60 10.04,11.38 10.60,10.60 11.38,10.04 12.38,9.71 13.60,9.60 13.60,-9.60 11.38,-10.04 10.60,-10.60 10.04,-11.38 9.71,-12.38 9.60,-13.60 -9.60,-13.60 -10.04,-11.38 -10.60,-10.60 -11.38,-10.04 -12.38,-9.71 -13.60,-9.60 -13.60,9.60 -11.38,10.04 -10.60,10.60 -10.04,11.38 -9.71,12.38">
        <request index="0"  response="000000000000" foes="000000000000" cont="0"/>
        <request index="1"  response="000000000000" foes="110100010000" cont="0"/>
        <request index="2"  response="000010000000" foes="100010110000" cont="0"/>
        <request index="3"  response="000000000000" foes="000000000000" cont="0"/>
        <request index="4"  response="000010000110" foes="100010000110" cont="0"/>
        <request index="5"  response="010110000100" foes="010110000100" cont="0"/>
        <request index="6"  response="000000000000" foes="000000000000" cont="0"/>
        <request index="7"  response="000000000000" foes="010000110100" cont="0"/>
        <request index="8"  response="000000000010" foes="110000100010" cont="0"/>
        <request index="9"  response="000000000000" foes="000000000000" cont="0"/>
        <request index="10" response="000110000010" foes="000110100010" cont="0"/>
        <request index="11" response="000100010110" foes="000100010110" cont="0"/>
    </junction>
    <junction id="j3" type="traffic_light" x="100.00" y="0.00" incLanes="gneE22_0 gneE22_1 gneE22_2 gneE30_0 gneE30_1 gneE30_2 gneE31_0 gneE31_1 gneE31_2 -gneE23_0 -gneE23_1 -gneE23_2" intLanes=":j3_0_0 :j3_1_0 :j3_2_0 :j3_3_0 :j3_4_0 :j3_5_0 :j3_6_0 :j3_7_0 :j3_8_0 :j3_9_0 :j3_10_0 :j3_11_0" shape="90.40,13.60 109.60,13.60 110.04,11.38 110.60,10.60 111.38,10.04 112.38,9.71 113.60,9.60 113.60,-9.60 111.38,-10.04 110.60,-10.60 110.04,-11.38 109.71,-12.38 109.60,-13.60 90.40,-13.60 89.96,-11.38 89.40,-10.60 88.62,-10.04 87.62,-9.71 86.40,-9.60 86.40,9.60 88.62,10.04 89.40,10.60 89.96,11.38 90.29,12.38">
        <request index="0"  response="000000000000" foes="000000000000" cont="0"/>
        <request index="1"  response="000000000000" foes="110100010000" cont="0"/>
        <request index="2"  response="000010000000" foes="100010110000" cont="0"/>
        <request index="3"  response="000000000000" foes="000000000000" cont="0"/>