<?xml version="1.0" encoding="UTF-8"?>

<!-- generated on wto, 4 sie 2020, 20:26:02 by Eclipse SUMO netedit Version 1.6.0
<configuration xmlns:xsi="http://www.w3.org/2001/XMLSchema-instance" xsi:noNamespaceSchemaLocation="http://sumo.dlr.de/xsd/netconvertConfiguration.xsd">

    <input>
        <sumo-net-file value="/home/marwin34/dev/simple-traffic-lights/environment/2lane.net.xml"/>
    </input>

    <output>
        <output-file value="/home/marwin34/dev/simple-traffic-lights/environment/2lane.net.xml"/>
    </output>

    <processing>
        <geometry.min-radius.fix.railways value="false"/>
        <geometry.max-grade.fix value="false"/>
        <offset.disable-normalization value="true"/>
        <lefthand value="false"/>
    </processing>

    <junctions>
        <no-turnarounds value="true"/>
        <junctions.corner-detail value="5"/>
        <junctions.limit-turn-speed value="5.5"/>
        <rectangular-lane-cut value="false"/>
    </junctions>

    <pedestrian>
        <walkingareas value="false"/>
    </pedestrian>

    <netedit>
        <route-files value="/home/marwin34/dev/simple-traffic-lights/environment/2lane.rou_2.xml.rou.xml"/>
    </netedit>

    <report>
        <aggregate-warnings value="5"/>
    </report>

</configuration>
-->

<routes xmlns:xsi="http://www.w3.org/2001/XMLSchema-instance" xsi:noNamespaceSchemaLocation="http://sumo.dlr.de/xsd/routes_file.xsd">
    <route edges="e0 e5" color="yellow" id="route_0"/>
    <route edges="e0 e7" color="yellow" id="route_1"/>
    <route edges="e6 e5" color="yellow" id="route_10"/>
    <route edges="e6 e3" color="yellow" id="route_11"/>
    <route edges="e0 e3" color="yellow" id="route_2"/>
    <route edges="e4 e1" color="yellow" id="route_3">
        <param key="spawn_timer" value="10"/>
    </route>
    <route edges="e4 e7" color="yellow" id="route_4"/>
    <route edges="e4 e3" color="yellow" id="route_5"/>
    <route edges="e2 e1" color="yellow" id="route_6"/>
    <route edges="e2 e7" color="yellow" id="route_7"/>
    <route edges="e2 e5" color="yellow" id="route_8"/>
    <route edges="e6 e1" color="yellow" id="route_9"/>
</routes>
