<?xml version="1.0" encoding="UTF-8"?>

<!-- generated on nie, 9 sie 2020, 16:03:17 by Eclipse SUMO netedit Version 1.6.0
<configuration xmlns:xsi="http://www.w3.org/2001/XMLSchema-instance" xsi:noNamespaceSchemaLocation="http://sumo.dlr.de/xsd/netconvertConfiguration.xsd">

    <input>
        <sumo-net-file value="/home/marwin34/dev/simple-traffic-lights/environment/2lane.net.xml"/>
    </input>

    <output>
        <output-file value="/home/marwin34/dev/simple-traffic-lights/environment/2lane.net.xml"/>
    </output>

    <processing>
        <geometry.min-radius.fix.railways value="false"/>
        <geometry.max-grade.fix value="false"/>
        <offset.disable-normalization value="true"/>
        <lefthand value="false"/>
    </processing>

    <junctions>
        <no-turnarounds value="true"/>
        <junctions.corner-detail value="5"/>
        <junctions.limit-turn-speed value="5.5"/>
        <rectangular-lane-cut value="false"/>
    </junctions>

    <pedestrian>
        <walkingareas value="false"/>
    </pedestrian>

    <report>
        <aggregate-warnings value="5"/>
    </report>

</configuration>
-->

<net version="1.6" junctionCornerDetail="5" limitTurnSpeed="5.50" xmlns:xsi="http://www.w3.org/2001/XMLSchema-instance" xsi:noNamespaceSchemaLocation="http://sumo.dlr.de/xsd/net_file.xsd">

    <location netOffset="0.00,0.00" convBoundary="0.00,0.00,200.10,200.00" origBoundary="-10000000000.00,-10000000000.00,10000000000.00,10000000000.00" projParameter="!"/>

    <edge id=":gneJ16_0" function="internal">
        <lane id=":gneJ16_0_0" index="0" speed="6.51" length="9.03" shape="95.20,110.40 94.85,107.95 93.80,106.20 92.05,105.15 89.60,104.80"/>
    </edge>
    <edge id=":gneJ16_1" function="internal">
        <lane id=":gneJ16_1_0" index="0" speed="13.89" length="20.80" shape="98.40,110.40 98.40,89.60"/>
    </edge>
    <edge id=":gneJ16_2" function="internal">
        <lane id=":gneJ16_2_0" index="0" speed="9.26" length="19.35" shape="98.40,110.40 99.15,105.15 101.40,101.40 105.15,99.15 110.40,98.40"/>
    </edge>
    <edge id=":gneJ16_3" function="internal">
        <lane id=":gneJ16_3_0" index="0" speed="6.51" length="9.03" shape="110.40,104.80 107.95,105.15 106.20,106.20 105.15,107.95 104.80,110.40"/>
    </edge>
    <edge id=":gneJ16_4" function="internal">
        <lane id=":gneJ16_4_0" index="0" speed="13.89" length="20.80" shape="110.40,101.60 89.60,101.60"/>
    </edge>
    <edge id=":gneJ16_5" function="internal">
        <lane id=":gneJ16_5_0" index="0" speed="9.26" length="19.35" shape="110.40,101.60 105.15,100.85 101.40,98.60 99.15,94.85 98.40,89.60"/>
    </edge>
    <edge id=":gneJ16_6" function="internal">
        <lane id=":gneJ16_6_0" index="0" speed="6.51" length="9.03" shape="104.80,89.60 105.15,92.05 106.20,93.80 107.95,94.85 110.40,95.20"/>
    </edge>
    <edge id=":gneJ16_7" function="internal">
        <lane id=":gneJ16_7_0" index="0" speed="13.89" length="20.80" shape="101.60,89.60 101.60,110.40"/>
    </edge>
    <edge id=":gneJ16_8" function="internal">
        <lane id=":gneJ16_8_0" index="0" speed="9.26" length="19.35" shape="101.60,89.60 100.85,94.85 98.60,98.60 94.85,100.85 89.60,101.60"/>
    </edge>
    <edge id=":gneJ16_9" function="internal">
        <lane id=":gneJ16_9_0" index="0" speed="6.51" length="9.03" shape="89.60,95.20 92.05,94.85 93.80,93.80 94.85,92.05 95.20,89.60"/>
    </edge>
    <edge id=":gneJ16_10" function="internal">
        <lane id=":gneJ16_10_0" index="0" speed="13.89" length="20.80" shape="89.60,98.40 110.40,98.40"/>
    </edge>
    <edge id=":gneJ16_11" function="internal">
        <lane id=":gneJ16_11_0" index="0" speed="9.26" length="19.35" shape="89.60,98.40 94.85,99.15 98.60,101.40 100.85,105.15 101.60,110.40"/>
    </edge>

    <edge id="e0" from="gneJ20" to="gneJ16" priority="-1">
        <lane id="e0_0" index="0" speed="13.89" length="89.60" shape="0.00,95.20 89.60,95.20">
            <param key="period" value="15"/>
        </lane>
        <lane id="e0_1" index="1" speed="13.89" length="89.60" shape="0.00,98.40 89.60,98.40">
            <param key="period" value="60"/>
        </lane>
    </edge>
    <edge id="e1" from="gneJ16" to="gneJ20" priority="-1">
        <lane id="e1_0" index="0" speed="13.89" length="89.60" shape="89.60,104.80 0.00,104.80"/>
        <lane id="e1_1" index="1" speed="13.89" length="89.60" shape="89.60,101.60 0.00,101.60"/>
    </edge>
    <edge id="e2" from="gneJ19" to="gneJ16" priority="-1">
        <lane id="e2_0" index="0" speed="13.89" length="89.60" shape="95.20,200.00 95.20,110.40">
            <param key="period" value="30"/>
        </lane>
        <lane id="e2_1" index="1" speed="13.89" length="89.60" shape="98.40,200.00 98.40,110.40">
            <param key="period" value="30"/>
        </lane>
    </edge>
    <edge id="e3" from="gneJ16" to="gneJ19" priority="-1">
        <lane id="e3_0" index="0" speed="13.89" length="89.60" shape="104.80,110.40 104.80,200.00"/>
        <lane id="e3_1" index="1" speed="13.89" length="89.60" shape="101.60,110.40 101.60,200.00"/>
    </edge>
    <edge id="e4" from="gneJ17" to="gneJ16" priority="-1" spreadType="center" shape="200.10,103.20 100.00,103.20">
        <lane id="e4_0" index="0" speed="13.89" length="89.70" shape="200.10,104.80 110.40,104.80">
            <param key="period" value="15"/>
        </lane>
        <lane id="e4_1" index="1" speed="13.89" length="89.70" shape="200.10,101.60 110.40,101.60">
            <param key="period" value="15"/>
        </lane>
    </edge>
    <edge id="e5" from="gneJ16" to="gneJ17" priority="-1">
        <lane id="e5_0" index="0" speed="13.89" length="89.60" shape="110.40,95.20 200.00,95.20"/>
        <lane id="e5_1" index="1" speed="13.89" length="89.60" shape="110.40,98.40 200.00,98.40"/>
    </edge>
    <edge id="e6" from="gneJ21" to="gneJ16" priority="-1">
        <lane id="e6_0" index="0" speed="13.89" length="89.60" shape="104.80,0.00 104.80,89.60">
            <param key="period" value="30"/>
        </lane>
        <lane id="e6_1" index="1" speed="13.89" length="89.60" shape="101.60,0.00 101.60,89.60">
            <param key="period" value="40"/>
        </lane>
    </edge>
    <edge id="e7" from="gneJ16" to="gneJ21" priority="-1">
        <lane id="e7_0" index="0" speed="13.89" length="89.60" shape="95.20,89.60 95.20,0.00"/>
        <lane id="e7_1" index="1" speed="13.89" length="89.60" shape="98.40,89.60 98.40,0.00"/>
    </edge>

    <tlLogic id="gneJ16" type="static" programID="0" offset="0">
        <phase duration="42" state="GGGrrrrr"/>
        <phase duration="3"  state="yyyrrrrr"/>
        <phase duration="42" state="rrGGGrrr"/>
        <phase duration="3"  state="rryyyrrr"/>
        <phase duration="42" state="rrrrGGGr"/>
        <phase duration="3"  state="rrrryyyr"/>
        <phase duration="42" state="GrrrrrGG"/>
        <phase duration="3"  state="yrrrrryy"/>
    </tlLogic>

    <junction id="gneJ16" type="traffic_light" x="100.00" y="100.00" incLanes="e2_0 e2_1 e4_0 e4_1 e6_0 e6_1 e0_0 e0_1" intLanes=":gneJ16_0_0 :gneJ16_1_0 :gneJ16_2_0 :gneJ16_3_0 :gneJ16_4_0 :gneJ16_5_0 :gneJ16_6_0 :gneJ16_7_0 :gneJ16_8_0 :gneJ16_9_0 :gneJ16_10_0 :gneJ16_11_0" shape="93.60,110.40 106.40,110.40 106.84,108.18 107.40,107.40 108.18,106.84 109.18,106.51 110.40,106.40 110.40,93.60 108.18,93.16 107.40,92.60 106.84,91.82 106.51,90.82 106.40,89.60 93.60,89.60 93.16,91.82 92.60,92.60 91.82,93.16 90.82,93.49 89.60,93.60 89.60,106.40 91.82,106.84 92.60,107.40 93.16,108.18 93.49,109.18">
        <request index="0"  response="000000000000" foes="000000000000" cont="0"/>
        <request index="1"  response="000000000000" foes="110100110000" cont="0"/>
        <request index="2"  response="000010000000" foes="110010110000" cont="0"/>
        <request index="3"  response="000000000000" foes="000000000000" cont="0"/>
        <request index="4"  response="000110000110" foes="100110000110" cont="0"/>
        <request index="5"  response="010110000110" foes="010110000110" cont="0"/>
        <request index="6"  response="000000000000" foes="000000000000" cont="0"/>
        <request index="7"  response="000000000000" foes="110000110100" cont="0"/>
        <request index="8"  response="000000000010" foes="110000110010" cont="0"/>
        <request index="9"  response="000000000000" foes="000000000000" cont="0"/>
        <request index="10" response="000110000110" foes="000110100110" cont="0"/>
        <request index="11" response="000110010110" foes="000110010110" cont="0"/>
    </junction>
    <junction id="gneJ17" type="dead_end" x="200.00" y="100.00" incLanes="e5_0 e5_1" intLanes="" shape="200.00,100.00 200.00,93.60 200.00,100.00"/>
    <junction id="gneJ19" type="dead_end" x="100.00" y="200.00" incLanes="e3_0 e3_1" intLanes="" shape="100.00,200.00 106.40,200.00 100.00,200.00"/>
    <junction id="gneJ20" type="dead_end" x="0.00" y="100.00" incLanes="e1_0 e1_1" intLanes="" shape="0.00,100.00 0.00,106.40 0.00,100.00"/>
    <junction id="gneJ21" type="dead_end" x="100.00" y="0.00" incLanes="e7_0 e7_1" intLanes="" shape="100.00,0.00 93.60,0.00 100.00,0.00"/>

    <connection from="e0" to="e7" fromLane="0" toLane="0" via=":gneJ16_9_0" tl="gneJ16" linkIndex="6" dir="r" state="O"/>
    <connection from="e0" to="e5" fromLane="1" toLane="1" via=":gneJ16_10_0" tl="gneJ16" linkIndex="7" dir="s" state="o"/>
    <connection from="e0" to="e3" fromLane="1" toLane="1" via=":gneJ16_11_0" tl="gneJ16" linkIndex="7" dir="l" state="o"/>
    <connection from="e2" to="e1" fromLane="0" toLane="0" via=":gneJ16_0_0" tl="gneJ16" linkIndex="0" dir="r" state="O"/>
    <connection from="e2" to="e7" fromLane="1" toLane="1" via=":gneJ16_1_0" tl="gneJ16" linkIndex="1" dir="s" state="O"/>
    <connection from="e2" to="e5" fromLane="1" toLane="1" via=":gneJ16_2_0" tl="gneJ16" linkIndex="1" dir="l" state="o"/>
    <connection from="e4" to="e3" fromLane="0" toLane="0" via=":gneJ16_3_0" tl="gneJ16" linkIndex="2" dir="r" state="O"/>
    <connection from="e4" to="e1" fromLane="1" toLane="1" via=":gneJ16_4_0" tl="gneJ16" linkIndex="3" dir="s" state="o"/>
    <connection from="e4" to="e7" fromLane="1" toLane="1" via=":gneJ16_5_0" tl="gneJ16" linkIndex="3" dir="l" state="o"/>
    <connection from="e6" to="e5" fromLane="0" toLane="0" via=":gneJ16_6_0" tl="gneJ16" linkIndex="4" dir="r" state="O"/>
    <connection from="e6" to="e3" fromLane="1" toLane="1" via=":gneJ16_7_0" tl="gneJ16" linkIndex="5" dir="s" state="O"/>
    <connection from="e6" to="e1" fromLane="1" toLane="1" via=":gneJ16_8_0" tl="gneJ16" linkIndex="5" dir="l" state="o"/>

    <connection from=":gneJ16_0" to="e1" fromLane="0" toLane="0" dir="r" state="M"/>
    <connection from=":gneJ16_1" to="e7" fromLane="0" toLane="1" dir="s" state="M"/>
    <connection from=":gneJ16_2" to="e5" fromLane="0" toLane="1" dir="l" state="M"/>
    <connection from=":gneJ16_3" to="e3" fromLane="0" toLane="0" dir="r" state="M"/>
    <connection from=":gneJ16_4" to="e1" fromLane="0" toLane="1" dir="s" state="M"/>
    <connection from=":gneJ16_5" to="e7" fromLane="0" toLane="1" dir="l" state="M"/>
    <connection from=":gneJ16_6" to="e5" fromLane="0" toLane="0" dir="r" state="M"/>
    <connection from=":gneJ16_7" to="e3" fromLane="0" toLane="1" dir="s" state="M"/>
    <connection from=":gneJ16_8" to="e1" fromLane="0" toLane="1" dir="l" state="M"/>
    <connection from=":gneJ16_9" to="e7" fromLane="0" toLane="0" dir="r" state="M"/>
    <connection from=":gneJ16_10" to="e5" fromLane="0" toLane="1" dir="s" state="M"/>
    <connection from=":gneJ16_11" to="e3" fromLane="0" toLane="1" dir="l" state="M"/>

</net>
