<?xml version="1.0" encoding="UTF-8"?>

<!-- generated on 11/19/20 22:34:21 by Eclipse SUMO netedit Version 1.7.0
<configuration xmlns:xsi="http://www.w3.org/2001/XMLSchema-instance" xsi:noNamespaceSchemaLocation="http://sumo.dlr.de/xsd/netconvertConfiguration.xsd">

    <input>
        <sumo-net-file value="C:\Users\MGK\PycharmProjects\simple-traffic-lights\environments\4v4\4v4.net.xml"/>
    </input>

    <output>
        <output-file value="C:\Users\MGK\PycharmProjects\simple-traffic-lights\environments\4v4\4v4.net.xml"/>
    </output>

    <processing>
        <geometry.min-radius.fix.railways value="false"/>
        <geometry.max-grade.fix value="false"/>
        <offset.disable-normalization value="true"/>
        <lefthand value="false"/>
    </processing>

    <junctions>
        <no-turnarounds value="true"/>
        <junctions.corner-detail value="5"/>
        <junctions.limit-turn-speed value="5.5"/>
        <rectangular-lane-cut value="false"/>
    </junctions>

    <pedestrian>
        <walkingareas value="false"/>
    </pedestrian>

    <report>
        <aggregate-warnings value="5"/>
    </report>

</configuration>
-->

<net version="1.6" junctionCornerDetail="5" limitTurnSpeed="5.50" xmlns:xsi="http://www.w3.org/2001/XMLSchema-instance" xsi:noNamespaceSchemaLocation="http://sumo.dlr.de/xsd/net_file.xsd">

    <location netOffset="0.00,0.00" convBoundary="-500.00,-800.00,1000.00,700.00" origBoundary="-10000000000.00,-10000000000.00,10000000000.00,10000000000.00" projParameter="!"/>

    <edge id=":gneJ1_0" function="internal">
        <lane id=":gneJ1_0_0" index="0" speed="6.51" length="9.03" shape="-208.00,-486.40 -208.35,-488.85 -209.40,-490.60 -211.15,-491.65 -213.60,-492.00"/>
    </edge>
    <edge id=":gneJ1_1" function="internal">
        <lane id=":gneJ1_1_0" index="0" speed="13.89" length="27.20" shape="-204.80,-486.40 -204.80,-513.60"/>
    </edge>
    <edge id=":gneJ1_2" function="internal">
        <lane id=":gneJ1_2_0" index="0" speed="10.36" length="24.51" shape="-201.60,-486.40 -200.65,-493.05 -197.80,-497.80 -193.05,-500.65 -186.40,-501.60"/>
    </edge>
    <edge id=":gneJ1_3" function="internal">
        <lane id=":gneJ1_3_0" index="0" speed="6.51" length="9.03" shape="-186.40,-492.00 -188.85,-491.65 -190.60,-490.60 -191.65,-488.85 -192.00,-486.40"/>
    </edge>
    <edge id=":gneJ1_4" function="internal">
        <lane id=":gneJ1_4_0" index="0" speed="13.89" length="27.20" shape="-186.40,-495.20 -213.60,-495.20"/>
    </edge>
    <edge id=":gneJ1_5" function="internal">
        <lane id=":gneJ1_5_0" index="0" speed="10.36" length="24.51" shape="-186.40,-498.40 -193.05,-499.35 -197.80,-502.20 -200.65,-506.95 -201.60,-513.60"/>
    </edge>
    <edge id=":gneJ1_6" function="internal">
        <lane id=":gneJ1_6_0" index="0" speed="6.51" length="9.03" shape="-192.00,-513.60 -191.65,-511.15 -190.60,-509.40 -188.85,-508.35 -186.40,-508.00"/>
    </edge>
    <edge id=":gneJ1_7" function="internal">
        <lane id=":gneJ1_7_0" index="0" speed="13.89" length="27.20" shape="-195.20,-513.60 -195.20,-486.40"/>
    </edge>
    <edge id=":gneJ1_8" function="internal">
        <lane id=":gneJ1_8_0" index="0" speed="10.36" length="24.51" shape="-198.40,-513.60 -199.35,-506.95 -202.20,-502.20 -206.95,-499.35 -213.60,-498.40"/>
    </edge>
    <edge id=":gneJ1_9" function="internal">
        <lane id=":gneJ1_9_0" index="0" speed="6.51" length="9.03" shape="-213.60,-508.00 -211.15,-508.35 -209.40,-509.40 -208.35,-511.15 -208.00,-513.60"/>
    </edge>
    <edge id=":gneJ1_10" function="internal">
        <lane id=":gneJ1_10_0" index="0" speed="13.89" length="27.20" shape="-213.60,-504.80 -186.40,-504.80"/>
    </edge>
    <edge id=":gneJ1_11" function="internal">
        <lane id=":gneJ1_11_0" index="0" speed="10.36" length="24.51" shape="-213.60,-501.60 -206.95,-500.65 -202.20,-497.80 -199.35,-493.05 -198.40,-486.40"/>
    </edge>
    <edge id=":gneJ10_0" function="internal">
        <lane id=":gneJ10_0_0" index="0" speed="6.51" length="9.03" shape="692.00,-186.40 691.65,-188.85 690.60,-190.60 688.85,-191.65 686.40,-192.00"/>
    </edge>
    <edge id=":gneJ10_1" function="internal">
        <lane id=":gneJ10_1_0" index="0" speed="13.89" length="27.20" shape="695.20,-186.40 695.20,-213.60"/>
    </edge>
    <edge id=":gneJ10_2" function="internal">
        <lane id=":gneJ10_2_0" index="0" speed="10.36" length="24.51" shape="698.40,-186.40 699.35,-193.05 702.20,-197.80 706.95,-200.65 713.60,-201.60"/>
    </edge>
    <edge id=":gneJ10_3" function="internal">
        <lane id=":gneJ10_3_0" index="0" speed="6.51" length="9.03" shape="713.60,-192.00 711.15,-191.65 709.40,-190.60 708.35,-188.85 708.00,-186.40"/>
    </edge>
    <edge id=":gneJ10_4" function="internal">
        <lane id=":gneJ10_4_0" index="0" speed="13.89" length="27.20" shape="713.60,-195.20 686.40,-195.20"/>
    </edge>
    <edge id=":gneJ10_5" function="internal">
        <lane id=":gneJ10_5_0" index="0" speed="10.36" length="24.51" shape="713.60,-198.40 706.95,-199.35 702.20,-202.20 699.35,-206.95 698.40,-213.60"/>
    </edge>
    <edge id=":gneJ10_6" function="internal">
        <lane id=":gneJ10_6_0" index="0" speed="6.51" length="9.03" shape="708.00,-213.60 708.35,-211.15 709.40,-209.40 711.15,-208.35 713.60,-208.00"/>
    </edge>
    <edge id=":gneJ10_7" function="internal">
        <lane id=":gneJ10_7_0" index="0" speed="13.89" length="27.20" shape="704.80,-213.60 704.80,-186.40"/>
    </edge>
    <edge id=":gneJ10_8" function="internal">
        <lane id=":gneJ10_8_0" index="0" speed="10.36" length="24.51" shape="701.60,-213.60 700.65,-206.95 697.80,-202.20 693.05,-199.35 686.40,-198.40"/>
    </edge>
    <edge id=":gneJ10_9" function="internal">
        <lane id=":gneJ10_9_0" index="0" speed="6.51" length="9.03" shape="686.40,-208.00 688.85,-208.35 690.60,-209.40 691.65,-211.15 692.00,-213.60"/>
    </edge>
    <edge id=":gneJ10_10" function="internal">
        <lane id=":gneJ10_10_0" index="0" speed="13.89" length="27.20" shape="686.40,-204.80 713.60,-204.80"/>
    </edge>
    <edge id=":gneJ10_11" function="internal">
        <lane id=":gneJ10_11_0" index="0" speed="10.36" length="24.51" shape="686.40,-201.60 693.05,-200.65 697.80,-197.80 700.65,-193.05 701.60,-186.40"/>
    </edge>
    <edge id=":gneJ14_0" function="internal">
        <lane id=":gneJ14_0_0" index="0" speed="6.51" length="9.03" shape="-208.00,113.60 -208.35,111.15 -209.40,109.40 -211.15,108.35 -213.60,108.00"/>
    </edge>
    <edge id=":gneJ14_1" function="internal">
        <lane id=":gneJ14_1_0" index="0" speed="13.89" length="27.20" shape="-204.80,113.60 -204.80,86.40"/>
    </edge>
    <edge id=":gneJ14_2" function="internal">
        <lane id=":gneJ14_2_0" index="0" speed="10.36" length="24.51" shape="-201.60,113.60 -200.65,106.95 -197.80,102.20 -193.05,99.35 -186.40,98.40"/>
    </edge>
    <edge id=":gneJ14_3" function="internal">
        <lane id=":gneJ14_3_0" index="0" speed="6.51" length="9.03" shape="-186.40,108.00 -188.85,108.35 -190.60,109.40 -191.65,111.15 -192.00,113.60"/>
    </edge>
    <edge id=":gneJ14_4" function="internal">
        <lane id=":gneJ14_4_0" index="0" speed="13.89" length="27.20" shape="-186.40,104.80 -213.60,104.80"/>
    </edge>
    <edge id=":gneJ14_5" function="internal">
        <lane id=":gneJ14_5_0" index="0" speed="10.36" length="24.51" shape="-186.40,101.60 -193.05,100.65 -197.80,97.80 -200.65,93.05 -201.60,86.40"/>
    </edge>
    <edge id=":gneJ14_6" function="internal">
        <lane id=":gneJ14_6_0" index="0" speed="6.51" length="9.03" shape="-192.00,86.40 -191.65,88.85 -190.60,90.60 -188.85,91.65 -186.40,92.00"/>
    </edge>
    <edge id=":gneJ14_7" function="internal">
        <lane id=":gneJ14_7_0" index="0" speed="13.89" length="27.20" shape="-195.20,86.40 -195.20,113.60"/>
    </edge>
    <edge id=":gneJ14_8" function="internal">
        <lane id=":gneJ14_8_0" index="0" speed="10.36" length="24.51" shape="-198.40,86.40 -199.35,93.05 -202.20,97.80 -206.95,100.65 -213.60,101.60"/>
    </edge>
    <edge id=":gneJ14_9" function="internal">
        <lane id=":gneJ14_9_0" index="0" speed="6.51" length="9.03" shape="-213.60,92.00 -211.15,91.65 -209.40,90.60 -208.35,88.85 -208.00,86.40"/>
    </edge>
    <edge id=":gneJ14_10" function="internal">
        <lane id=":gneJ14_10_0" index="0" speed="13.89" length="27.20" shape="-213.60,95.20 -186.40,95.20"/>
    </edge>
    <edge id=":gneJ14_11" function="internal">
        <lane id=":gneJ14_11_0" index="0" speed="10.36" length="24.51" shape="-213.60,98.40 -206.95,99.35 -202.20,102.20 -199.35,106.95 -198.40,113.60"/>
    </edge>
    <edge id=":gneJ15_0" function="internal">
        <lane id=":gneJ15_0_0" index="0" speed="6.51" length="9.03" shape="92.00,113.60 91.65,111.15 90.60,109.40 88.85,108.35 86.40,108.00"/>
    </edge>
    <edge id=":gneJ15_1" function="internal">
        <lane id=":gneJ15_1_0" index="0" speed="13.89" length="27.20" shape="95.20,113.60 95.20,86.40"/>
    </edge>
    <edge id=":gneJ15_2" function="internal">
        <lane id=":gneJ15_2_0" index="0" speed="10.36" length="24.51" shape="98.40,113.60 99.35,106.95 102.20,102.20 106.95,99.35 113.60,98.40"/>
    </edge>
    <edge id=":gneJ15_3" function="internal">
        <lane id=":gneJ15_3_0" index="0" speed="6.51" length="9.03" shape="113.60,108.00 111.15,108.35 109.40,109.40 108.35,111.15 108.00,113.60"/>
    </edge>
    <edge id=":gneJ15_4" function="internal">
        <lane id=":gneJ15_4_0" index="0" speed="13.89" length="27.20" shape="113.60,104.80 86.40,104.80"/>
    </edge>
    <edge id=":gneJ15_5" function="internal">
        <lane id=":gneJ15_5_0" index="0" speed="10.36" length="24.51" shape="113.60,101.60 106.95,100.65 102.20,97.80 99.35,93.05 98.40,86.40"/>
    </edge>
    <edge id=":gneJ15_6" function="internal">
        <lane id=":gneJ15_6_0" index="0" speed="6.51" length="9.03" shape="108.00,86.40 108.35,88.85 109.40,90.60 111.15,91.65 113.60,92.00"/>
    </edge>
    <edge id=":gneJ15_7" function="internal">
        <lane id=":gneJ15_7_0" index="0" speed="13.89" length="27.20" shape="104.80,86.40 104.80,113.60"/>
    </edge>
    <edge id=":gneJ15_8" function="internal">
        <lane id=":gneJ15_8_0" index="0" speed="10.36" length="24.51" shape="101.60,86.40 100.65,93.05 97.80,97.80 93.05,100.65 86.40,101.60"/>
    </edge>
    <edge id=":gneJ15_9" function="internal">
        <lane id=":gneJ15_9_0" index="0" speed="6.51" length="9.03" shape="86.40,92.00 88.85,91.65 90.60,90.60 91.65,88.85 92.00,86.40"/>
    </edge>
    <edge id=":gneJ15_10" function="internal">
        <lane id=":gneJ15_10_0" index="0" speed="13.89" length="27.20" shape="86.40,95.20 113.60,95.20"/>
    </edge>
    <edge id=":gneJ15_11" function="internal">
        <lane id=":gneJ15_11_0" index="0" speed="10.36" length="24.51" shape="86.40,98.40 93.05,99.35 97.80,102.20 100.65,106.95 101.60,113.60"/>
    </edge>
    <edge id=":gneJ16_0" function="internal">
        <lane id=":gneJ16_0_0" index="0" speed="6.51" length="9.03" shape="392.00,113.60 391.65,111.15 390.60,109.40 388.85,108.35 386.40,108.00"/>
    </edge>
    <edge id=":gneJ16_1" function="internal">
        <lane id=":gneJ16_1_0" index="0" speed="13.89" length="27.20" shape="395.20,113.60 395.20,86.40"/>
    </edge>
    <edge id=":gneJ16_2" function="internal">
        <lane id=":gneJ16_2_0" index="0" speed="10.36" length="24.51" shape="398.40,113.60 399.35,106.95 402.20,102.20 406.95,99.35 413.60,98.40"/>
    </edge>
    <edge id=":gneJ16_3" function="internal">
        <lane id=":gneJ16_3_0" index="0" speed="6.51" length="9.03" shape="413.60,108.00 411.15,108.35 409.40,109.40 408.35,111.15 408.00,113.60"/>
    </edge>
    <edge id=":gneJ16_4" function="internal">
        <lane id=":gneJ16_4_0" index="0" speed="13.89" length="27.20" shape="413.60,104.80 386.40,104.80"/>
    </edge>
    <edge id=":gneJ16_5" function="internal">
        <lane id=":gneJ16_5_0" index="0" speed="10.36" length="24.51" shape="413.60,101.60 406.95,100.65 402.20,97.80 399.35,93.05 398.40,86.40"/>
    </edge>
    <edge id=":gneJ16_6" function="internal">
        <lane id=":gneJ16_6_0" index="0" speed="6.51" length="9.03" shape="408.00,86.40 408.35,88.85 409.40,90.60 411.15,91.65 413.60,92.00"/>
    </edge>
    <edge id=":gneJ16_7" function="internal">
        <lane id=":gneJ16_7_0" index="0" speed="13.89" length="27.20" shape="404.80,86.40 404.80,113.60"/>
    </edge>
    <edge id=":gneJ16_8" function="internal">
        <lane id=":gneJ16_8_0" index="0" speed="10.36" length="24.51" shape="401.60,86.40 400.65,93.05 397.80,97.80 393.05,100.65 386.40,101.60"/>
    </edge>
    <edge id=":gneJ16_9" function="internal">
        <lane id=":gneJ16_9_0" index="0" speed="6.51" length="9.03" shape="386.40,92.00 388.85,91.65 390.60,90.60 391.65,88.85 392.00,86.40"/>
    </edge>
    <edge id=":gneJ16_10" function="internal">
        <lane id=":gneJ16_10_0" index="0" speed="13.89" length="27.20" shape="386.40,95.20 413.60,95.20"/>
    </edge>
    <edge id=":gneJ16_11" function="internal">
        <lane id=":gneJ16_11_0" index="0" speed="10.36" length="24.51" shape="386.40,98.40 393.05,99.35 397.80,102.20 400.65,106.95 401.60,113.60"/>
    </edge>
    <edge id=":gneJ17_0" function="internal">
        <lane id=":gneJ17_0_0" index="0" speed="6.51" length="9.03" shape="692.00,113.60 691.65,111.15 690.60,109.40 688.85,108.35 686.40,108.00"/>
    </edge>
    <edge id=":gneJ17_1" function="internal">
        <lane id=":gneJ17_1_0" index="0" speed="13.89" length="27.20" shape="695.20,113.60 695.20,86.40"/>
    </edge>
    <edge id=":gneJ17_2" function="internal">
        <lane id=":gneJ17_2_0" index="0" speed="10.36" length="24.51" shape="698.40,113.60 699.35,106.95 702.20,102.20 706.95,99.35 713.60,98.40"/>
    </edge>
    <edge id=":gneJ17_3" function="internal">
        <lane id=":gneJ17_3_0" index="0" speed="6.51" length="9.03" shape="713.60,108.00 711.15,108.35 709.40,109.40 708.35,111.15 708.00,113.60"/>
    </edge>
    <edge id=":gneJ17_4" function="internal">
        <lane id=":gneJ17_4_0" index="0" speed="13.89" length="27.20" shape="713.60,104.80 686.40,104.80"/>
    </edge>
    <edge id=":gneJ17_5" function="internal">
        <lane id=":gneJ17_5_0" index="0" speed="10.36" length="24.51" shape="713.60,101.60 706.95,100.65 702.20,97.80 699.35,93.05 698.40,86.40"/>
    </edge>
    <edge id=":gneJ17_6" function="internal">
        <lane id=":gneJ17_6_0" index="0" speed="6.51" length="9.03" shape="708.00,86.40 708.35,88.85 709.40,90.60 711.15,91.65 713.60,92.00"/>
    </edge>
    <edge id=":gneJ17_7" function="internal">
        <lane id=":gneJ17_7_0" index="0" speed="13.89" length="27.20" shape="704.80,86.40 704.80,113.60"/>
    </edge>
    <edge id=":gneJ17_8" function="internal">
        <lane id=":gneJ17_8_0" index="0" speed="10.36" length="24.51" shape="701.60,86.40 700.65,93.05 697.80,97.80 693.05,100.65 686.40,101.60"/>
    </edge>
    <edge id=":gneJ17_9" function="internal">
        <lane id=":gneJ17_9_0" index="0" speed="6.51" length="9.03" shape="686.40,92.00 688.85,91.65 690.60,90.60 691.65,88.85 692.00,86.40"/>
    </edge>
    <edge id=":gneJ17_10" function="internal">
        <lane id=":gneJ17_10_0" index="0" speed="13.89" length="27.20" shape="686.40,95.20 713.60,95.20"/>
    </edge>
    <edge id=":gneJ17_11" function="internal">
        <lane id=":gneJ17_11_0" index="0" speed="10.36" length="24.51" shape="686.40,98.40 693.05,99.35 697.80,102.20 700.65,106.95 701.60,113.60"/>
    </edge>
    <edge id=":gneJ2_0" function="internal">
        <lane id=":gneJ2_0_0" index="0" speed="6.51" length="9.03" shape="92.00,-486.40 91.65,-488.85 90.60,-490.60 88.85,-491.65 86.40,-492.00"/>
    </edge>
    <edge id=":gneJ2_1" function="internal">
        <lane id=":gneJ2_1_0" index="0" speed="13.89" length="27.20" shape="95.20,-486.40 95.20,-513.60"/>
    </edge>
    <edge id=":gneJ2_2" function="internal">
        <lane id=":gneJ2_2_0" index="0" speed="10.36" length="24.51" shape="98.40,-486.40 99.35,-493.05 102.20,-497.80 106.95,-500.65 113.60,-501.60"/>
    </edge>
    <edge id=":gneJ2_3" function="internal">
        <lane id=":gneJ2_3_0" index="0" speed="6.51" length="9.03" shape="113.60,-492.00 111.15,-491.65 109.40,-490.60 108.35,-488.85 108.00,-486.40"/>
    </edge>
    <edge id=":gneJ2_4" function="internal">
        <lane id=":gneJ2_4_0" index="0" speed="13.89" length="27.20" shape="113.60,-495.20 86.40,-495.20"/>
    </edge>
    <edge id=":gneJ2_5" function="internal">
        <lane id=":gneJ2_5_0" index="0" speed="10.36" length="24.51" shape="113.60,-498.40 106.95,-499.35 102.20,-502.20 99.35,-506.95 98.40,-513.60"/>
    </edge>
    <edge id=":gneJ2_6" function="internal">
        <lane id=":gneJ2_6_0" index="0" speed="6.51" length="9.03" shape="108.00,-513.60 108.35,-511.15 109.40,-509.40 111.15,-508.35 113.60,-508.00"/>
    </edge>
    <edge id=":gneJ2_7" function="internal">
        <lane id=":gneJ2_7_0" index="0" speed="13.89" length="27.20" shape="104.80,-513.60 104.80,-486.40"/>
    </edge>
    <edge id=":gneJ2_8" function="internal">
        <lane id=":gneJ2_8_0" index="0" speed="10.36" length="24.51" shape="101.60,-513.60 100.65,-506.95 97.80,-502.20 93.05,-499.35 86.40,-498.40"/>
    </edge>
    <edge id=":gneJ2_9" function="internal">
        <lane id=":gneJ2_9_0" index="0" speed="6.51" length="9.03" shape="86.40,-508.00 88.85,-508.35 90.60,-509.40 91.65,-511.15 92.00,-513.60"/>
    </edge>
    <edge id=":gneJ2_10" function="internal">
        <lane id=":gneJ2_10_0" index="0" speed="13.89" length="27.20" shape="86.40,-504.80 113.60,-504.80"/>
    </edge>
    <edge id=":gneJ2_11" function="internal">
        <lane id=":gneJ2_11_0" index="0" speed="10.36" length="24.51" shape="86.40,-501.60 93.05,-500.65 97.80,-497.80 100.65,-493.05 101.60,-486.40"/>
    </edge>
    <edge id=":gneJ20_0" function="internal">
        <lane id=":gneJ20_0_0" index="0" speed="6.51" length="9.03" shape="692.00,413.60 691.65,411.15 690.60,409.40 688.85,408.35 686.40,408.00"/>
    </edge>
    <edge id=":gneJ20_1" function="internal">
        <lane id=":gneJ20_1_0" index="0" speed="13.89" length="27.20" shape="695.20,413.60 695.20,386.40"/>
    </edge>
    <edge id=":gneJ20_2" function="internal">
        <lane id=":gneJ20_2_0" index="0" speed="10.36" length="24.51" shape="698.40,413.60 699.35,406.95 702.20,402.20 706.95,399.35 713.60,398.40"/>
    </edge>
    <edge id=":gneJ20_3" function="internal">
        <lane id=":gneJ20_3_0" index="0" speed="6.51" length="9.03" shape="713.60,408.00 711.15,408.35 709.40,409.40 708.35,411.15 708.00,413.60"/>
    </edge>
    <edge id=":gneJ20_4" function="internal">
        <lane id=":gneJ20_4_0" index="0" speed="13.89" length="27.20" shape="713.60,404.80 686.40,404.80"/>
    </edge>
    <edge id=":gneJ20_5" function="internal">
        <lane id=":gneJ20_5_0" index="0" speed="10.36" length="24.51" shape="713.60,401.60 706.95,400.65 702.20,397.80 699.35,393.05 698.40,386.40"/>
    </edge>
    <edge id=":gneJ20_6" function="internal">
        <lane id=":gneJ20_6_0" index="0" speed="6.51" length="9.03" shape="708.00,386.40 708.35,388.85 709.40,390.60 711.15,391.65 713.60,392.00"/>
    </edge>
    <edge id=":gneJ20_7" function="internal">
        <lane id=":gneJ20_7_0" index="0" speed="13.89" length="27.20" shape="704.80,386.40 704.80,413.60"/>
    </edge>
    <edge id=":gneJ20_8" function="internal">
        <lane id=":gneJ20_8_0" index="0" speed="10.36" length="24.51" shape="701.60,386.40 700.65,393.05 697.80,397.80 693.05,400.65 686.40,401.60"/>
    </edge>
    <edge id=":gneJ20_9" function="internal">
        <lane id=":gneJ20_9_0" index="0" speed="6.51" length="9.03" shape="686.40,392.00 688.85,391.65 690.60,390.60 691.65,388.85 692.00,386.40"/>
    </edge>
    <edge id=":gneJ20_10" function="internal">
        <lane id=":gneJ20_10_0" index="0" speed="13.89" length="27.20" shape="686.40,395.20 713.60,395.20"/>
    </edge>
    <edge id=":gneJ20_11" function="internal">
        <lane id=":gneJ20_11_0" index="0" speed="10.36" length="24.51" shape="686.40,398.40 693.05,399.35 697.80,402.20 700.65,406.95 701.60,413.60"/>
    </edge>
    <edge id=":gneJ21_0" function="internal">
        <lane id=":gneJ21_0_0" index="0" speed="6.51" length="9.03" shape="392.00,413.60 391.65,411.15 390.60,409.40 388.85,408.35 386.40,408.00"/>
    </edge>
    <edge id=":gneJ21_1" function="internal">
        <lane id=":gneJ21_1_0" index="0" speed="13.89" length="27.20" shape="395.20,413.60 395.20,386.40"/>
    </edge>
    <edge id=":gneJ21_2" function="internal">
        <lane id=":gneJ21_2_0" index="0" speed="10.36" length="24.51" shape="398.40,413.60 399.35,406.95 402.20,402.20 406.95,399.35 413.60,398.40"/>
    </edge>
    <edge id=":gneJ21_3" function="internal">
        <lane id=":gneJ21_3_0" index="0" speed="6.51" length="9.03" shape="413.60,408.00 411.15,408.35 409.40,409.40 408.35,411.15 408.00,413.60"/>
    </edge>
    <edge id=":gneJ21_4" function="internal">
        <lane id=":gneJ21_4_0" index="0" speed="13.89" length="27.20" shape="413.60,404.80 386.40,404.80"/>
    </edge>
    <edge id=":gneJ21_5" function="internal">
        <lane id=":gneJ21_5_0" index="0" speed="10.36" length="24.51" shape="413.60,401.60 406.95,400.65 402.20,397.80 399.35,393.05 398.40,386.40"/>
    </edge>
    <edge id=":gneJ21_6" function="internal">
        <lane id=":gneJ21_6_0" index="0" speed="6.51" length="9.03" shape="408.00,386.40 408.35,388.85 409.40,390.60 411.15,391.65 413.60,392.00"/>
    </edge>
    <edge id=":gneJ21_7" function="internal">
        <lane id=":gneJ21_7_0" index="0" speed="13.89" length="27.20" shape="404.80,386.40 404.80,413.60"/>
    </edge>
    <edge id=":gneJ21_8" function="internal">
        <lane id=":gneJ21_8_0" index="0" speed="10.36" length="24.51" shape="401.60,386.40 400.65,393.05 397.80,397.80 393.05,400.65 386.40,401.60"/>
    </edge>
    <edge id=":gneJ21_9" function="internal">
        <lane id=":gneJ21_9_0" index="0" speed="6.51" length="9.03" shape="386.40,392.00 388.85,391.65 390.60,390.60 391.65,388.85 392.00,386.40"/>
    </edge>
    <edge id=":gneJ21_10" function="internal">
        <lane id=":gneJ21_10_0" index="0" speed="13.89" length="27.20" shape="386.40,395.20 413.60,395.20"/>
    </edge>
    <edge id=":gneJ21_11" function="internal">
        <lane id=":gneJ21_11_0" index="0" speed="10.36" length="24.51" shape="386.40,398.40 393.05,399.35 397.80,402.20 400.65,406.95 401.60,413.60"/>
    </edge>
    <edge id=":gneJ22_0" function="internal">
        <lane id=":gneJ22_0_0" index="0" speed="6.51" length="9.03" shape="92.00,413.60 91.65,411.15 90.60,409.40 88.85,408.35 86.40,408.00"/>
    </edge>
    <edge id=":gneJ22_1" function="internal">
        <lane id=":gneJ22_1_0" index="0" speed="13.89" length="27.20" shape="95.20,413.60 95.20,386.40"/>
    </edge>
    <edge id=":gneJ22_2" function="internal">
        <lane id=":gneJ22_2_0" index="0" speed="10.36" length="24.51" shape="98.40,413.60 99.35,406.95 102.20,402.20 106.95,399.35 113.60,398.40"/>
    </edge>
    <edge id=":gneJ22_3" function="internal">
        <lane id=":gneJ22_3_0" index="0" speed="6.51" length="9.03" shape="113.60,408.00 111.15,408.35 109.40,409.40 108.35,411.15 108.00,413.60"/>
    </edge>
    <edge id=":gneJ22_4" function="internal">
        <lane id=":gneJ22_4_0" index="0" speed="13.89" length="27.20" shape="113.60,404.80 86.40,404.80"/>
    </edge>
    <edge id=":gneJ22_5" function="internal">
        <lane id=":gneJ22_5_0" index="0" speed="10.36" length="24.51" shape="113.60,401.60 106.95,400.65 102.20,397.80 99.35,393.05 98.40,386.40"/>
    </edge>
    <edge id=":gneJ22_6" function="internal">
        <lane id=":gneJ22_6_0" index="0" speed="6.51" length="9.03" shape="108.00,386.40 108.35,388.85 109.40,390.60 111.15,391.65 113.60,392.00"/>
    </edge>
    <edge id=":gneJ22_7" function="internal">
        <lane id=":gneJ22_7_0" index="0" speed="13.89" length="27.20" shape="104.80,386.40 104.80,413.60"/>
    </edge>
    <edge id=":gneJ22_8" function="internal">
        <lane id=":gneJ22_8_0" index="0" speed="10.36" length="24.51" shape="101.60,386.40 100.65,393.05 97.80,397.80 93.05,400.65 86.40,401.60"/>
    </edge>
    <edge id=":gneJ22_9" function="internal">
        <lane id=":gneJ22_9_0" index="0" speed="6.51" length="9.03" shape="86.40,392.00 88.85,391.65 90.60,390.60 91.65,388.85 92.00,386.40"/>
    </edge>
    <edge id=":gneJ22_10" function="internal">
        <lane id=":gneJ22_10_0" index="0" speed="13.89" length="27.20" shape="86.40,395.20 113.60,395.20"/>
    </edge>
    <edge id=":gneJ22_11" function="internal">
        <lane id=":gneJ22_11_0" index="0" speed="10.36" length="24.51" shape="86.40,398.40 93.05,399.35 97.80,402.20 100.65,406.95 101.60,413.60"/>
    </edge>
    <edge id=":gneJ23_0" function="internal">
        <lane id=":gneJ23_0_0" index="0" speed="6.51" length="9.03" shape="-208.00,413.60 -208.35,411.15 -209.40,409.40 -211.15,408.35 -213.60,408.00"/>
    </edge>
    <edge id=":gneJ23_1" function="internal">
        <lane id=":gneJ23_1_0" index="0" speed="13.89" length="27.20" shape="-204.80,413.60 -204.80,386.40"/>
    </edge>
    <edge id=":gneJ23_2" function="internal">
        <lane id=":gneJ23_2_0" index="0" speed="10.36" length="24.51" shape="-201.60,413.60 -200.65,406.95 -197.80,402.20 -193.05,399.35 -186.40,398.40"/>
    </edge>
    <edge id=":gneJ23_3" function="internal">
        <lane id=":gneJ23_3_0" index="0" speed="6.51" length="9.03" shape="-186.40,408.00 -188.85,408.35 -190.60,409.40 -191.65,411.15 -192.00,413.60"/>
    </edge>
    <edge id=":gneJ23_4" function="internal">
        <lane id=":gneJ23_4_0" index="0" speed="13.89" length="27.20" shape="-186.40,404.80 -213.60,404.80"/>
    </edge>
    <edge id=":gneJ23_5" function="internal">
        <lane id=":gneJ23_5_0" index="0" speed="10.36" length="24.51" shape="-186.40,401.60 -193.05,400.65 -197.80,397.80 -200.65,393.05 -201.60,386.40"/>
    </edge>
    <edge id=":gneJ23_6" function="internal">
        <lane id=":gneJ23_6_0" index="0" speed="6.51" length="9.03" shape="-192.00,386.40 -191.65,388.85 -190.60,390.60 -188.85,391.65 -186.40,392.00"/>
    </edge>
    <edge id=":gneJ23_7" function="internal">
        <lane id=":gneJ23_7_0" index="0" speed="13.89" length="27.20" shape="-195.20,386.40 -195.20,413.60"/>
    </edge>
    <edge id=":gneJ23_8" function="internal">
        <lane id=":gneJ23_8_0" index="0" speed="10.36" length="24.51" shape="-198.40,386.40 -199.35,393.05 -202.20,397.80 -206.95,400.65 -213.60,401.60"/>
    </edge>
    <edge id=":gneJ23_9" function="internal">
        <lane id=":gneJ23_9_0" index="0" speed="6.51" length="9.03" shape="-213.60,392.00 -211.15,391.65 -209.40,390.60 -208.35,388.85 -208.00,386.40"/>
    </edge>
    <edge id=":gneJ23_10" function="internal">
        <lane id=":gneJ23_10_0" index="0" speed="13.89" length="27.20" shape="-213.60,395.20 -186.40,395.20"/>
    </edge>
    <edge id=":gneJ23_11" function="internal">
        <lane id=":gneJ23_11_0" index="0" speed="10.36" length="24.51" shape="-213.60,398.40 -206.95,399.35 -202.20,402.20 -199.35,406.95 -198.40,413.60"/>
    </edge>
    <edge id=":gneJ3_0" function="internal">
        <lane id=":gneJ3_0_0" index="0" speed="6.51" length="9.03" shape="392.00,-486.40 391.65,-488.85 390.60,-490.60 388.85,-491.65 386.40,-492.00"/>
    </edge>
    <edge id=":gneJ3_1" function="internal">
        <lane id=":gneJ3_1_0" index="0" speed="13.89" length="27.20" shape="395.20,-486.40 395.20,-513.60"/>
    </edge>
    <edge id=":gneJ3_2" function="internal">
        <lane id=":gneJ3_2_0" index="0" speed="10.36" length="24.51" shape="398.40,-486.40 399.35,-493.05 402.20,-497.80 406.95,-500.65 413.60,-501.60"/>
    </edge>
    <edge id=":gneJ3_3" function="internal">
        <lane id=":gneJ3_3_0" index="0" speed="6.51" length="9.03" shape="413.60,-492.00 411.15,-491.65 409.40,-490.60 408.35,-488.85 408.00,-486.40"/>
    </edge>
    <edge id=":gneJ3_4" function="internal">
        <lane id=":gneJ3_4_0" index="0" speed="13.89" length="27.20" shape="413.60,-495.20 386.40,-495.20"/>
    </edge>
    <edge id=":gneJ3_5" function="internal">
        <lane id=":gneJ3_5_0" index="0" speed="10.36" length="24.51" shape="413.60,-498.40 406.95,-499.35 402.20,-502.20 399.35,-506.95 398.40,-513.60"/>
    </edge>
    <edge id=":gneJ3_6" function="internal">
        <lane id=":gneJ3_6_0" index="0" speed="6.51" length="9.03" shape="408.00,-513.60 408.35,-511.15 409.40,-509.40 411.15,-508.35 413.60,-508.00"/>
    </edge>
    <edge id=":gneJ3_7" function="internal">
        <lane id=":gneJ3_7_0" index="0" speed="13.89" length="27.20" shape="404.80,-513.60 404.80,-486.40"/>
    </edge>
    <edge id=":gneJ3_8" function="internal">
        <lane id=":gneJ3_8_0" index="0" speed="10.36" length="24.51" shape="401.60,-513.60 400.65,-506.95 397.80,-502.20 393.05,-499.35 386.40,-498.40"/>
    </edge>
    <edge id=":gneJ3_9" function="internal">
        <lane id=":gneJ3_9_0" index="0" speed="6.51" length="9.03" shape="386.40,-508.00 388.85,-508.35 390.60,-509.40 391.65,-511.15 392.00,-513.60"/>
    </edge>
    <edge id=":gneJ3_10" function="internal">
        <lane id=":gneJ3_10_0" index="0" speed="13.89" length="27.20" shape="386.40,-504.80 413.60,-504.80"/>
    </edge>
    <edge id=":gneJ3_11" function="internal">
        <lane id=":gneJ3_11_0" index="0" speed="10.36" length="24.51" shape="386.40,-501.60 393.05,-500.65 397.80,-497.80 400.65,-493.05 401.60,-486.40"/>
    </edge>
    <edge id=":gneJ4_0" function="internal">
        <lane id=":gneJ4_0_0" index="0" speed="6.51" length="9.03" shape="692.00,-486.40 691.65,-488.85 690.60,-490.60 688.85,-491.65 686.40,-492.00"/>
    </edge>
    <edge id=":gneJ4_1" function="internal">
        <lane id=":gneJ4_1_0" index="0" speed="13.89" length="27.20" shape="695.20,-486.40 695.20,-513.60"/>
    </edge>
    <edge id=":gneJ4_2" function="internal">