<?xml version="1.0" encoding="UTF-8"?>
<routes xmlns:xsi="http://www.w3.org/2001/XMLSchema-instance" xsi:noNamespaceSchemaLocation="http://sumo.dlr.de/xsd/routes_file.xsd">
	<route edges="gneE20 -gneE18 -gneE25" id="route_0"/>
	<route edges="gneE20 -gneE18 -gneE17 -gneE30" id="route_1"/>
	<route edges="gneE20 -gneE18 -gneE17 -gneE16 -gneE35" id="route_2"/>
	<route edges="gneE20 gneE19" id="route_3"/>
	<route edges="gneE20 -gneE18 -gneE17 -gneE16 -gneE15" id="route_4"/>
	<route edges="gneE20 gneE21 -gneE10" id="route_5"/>
	<route edges="gneE20 -gneE18 -gneE17 -gneE16 gneE36 gneE14" id="route_6"/>
	<route edges="gneE20 -gneE18 -gneE17 gneE31 gneE13 gneE14" id="route_7"/>
	<route edges="gneE20 -gneE18 gneE26 gneE12 gneE13 gneE14" id="route_8"/>
	<route edges="gneE20 gneE21 gneE11 gneE12 gneE13 gneE14" id="route_9"/>
	<route edges="gneE20 gneE21 gneE22 -gneE5" id="route_10"/>
	<route edges="gneE20 -gneE18 -gneE17 -gneE16 gneE36 gneE37 gneE9" id="route_11"/>
	<route edges="gneE20 -gneE18 -gneE17 gneE31 gneE13 gneE37 gneE9" id="route_12"/>
	<route edges="gneE20 -gneE18 gneE26 gneE12 gneE13 gneE37 gneE9" id="route_13"/>
	<route edges="gneE20 gneE21 gneE11 gneE12 gneE13 gneE37 gneE9" id="route_14"/>
	<route edges="gneE20 -gneE18 -gneE17 gneE31 gneE32 gneE8 gneE9" id="route_15"/>
	<route edges="gneE20 -gneE18 gneE26 gneE12 gneE32 gneE8 gneE9" id="route_16"/>
	<route edges="gneE20 gneE21 gneE11 gneE12 gneE32 gneE8 gneE9" id="route_17"/>
	<route edges="gneE20 -gneE18 gneE26 gneE27 gneE7 gneE8 gneE9" id="route_18"/>
	<route edges="gneE20 gneE21 gneE11 gneE27 gneE7 gneE8 gneE9" id="route_19"/>
	<route edges="gneE20 gneE21 gneE22 gneE6 gneE7 gneE8 gneE9" id="route_20"/>
	<route edges="gneE20 gneE21 gneE22 gneE23 -gneE0" id="route_21"/>
	<route edges="gneE20 -gneE18 -gneE17 -gneE16 gneE36 gneE37 gneE38 gneE4" id="route_22"/>
	<route edges="gneE20 -gneE18 -gneE17 gneE31 gneE13 gneE37 gneE38 gneE4" id="route_23"/>
	<route edges="gneE20 -gneE18 gneE26 gneE12 gneE13 gneE37 gneE38 gneE4" id="route_24"/>
	<route edges="gneE20 gneE21 gneE11 gneE12 gneE13 gneE37 gneE38 gneE4" id="route_25"/>
	<route edges="gneE20 -gneE18 -gneE17 gneE31 gneE32 gneE8 gneE38 gneE4" id="route_26"/>
	<route edges="gneE20 -gneE18 gneE26 gneE12 gneE32 gneE8 gneE38 gneE4" id="route_27"/>
	<route edges="gneE20 gneE21 gneE11 gneE12 gneE32 gneE8 gneE38 gneE4" id="route_28"/>
	<route edges="gneE20 -gneE18 gneE26 gneE27 gneE7 gneE8 gneE38 gneE4" id="route_29"/>
	<route edges="gneE20 gneE21 gneE11 gneE27 gneE7 gneE8 gneE38 gneE4" id="route_30"/>
	<route edges="gneE20 gneE21 gneE22 gneE6 gneE7 gneE8 gneE38 gneE4" id="route_31"/>
	<route edges="gneE20 -gneE18 -gneE17 gneE31 gneE32 gneE33 gneE3 gneE4" id="route_32"/>
	<route edges="gneE20 -gneE18 gneE26 gneE12 gneE32 gneE33 gneE3 gneE4" id="route_33"/>
	<route edges="gneE20 gneE21 gneE11 gneE12 gneE32 gneE33 gneE3 gneE4" id="route_34"/>
	<route edges="gneE20 -gneE18 gneE26 gneE27 gneE7 gneE33 gneE3 gneE4" id="route_35"/>
	<route edges="gneE20 gneE21 gneE11 gneE27 gneE7 gneE33 gneE3 gneE4" id="route_36"/>
	<route edges="gneE20 gneE21 gneE22 gneE6 gneE7 gneE33 gneE3 gneE4" id="route_37"/>
	<route edges="gneE20 -gneE18 gneE26 gneE27 gneE28 gneE2 gneE3 gneE4" id="route_38"/>
	<route edges="gneE20 gneE21 gneE11 gneE27 gneE28 gneE2 gneE3 gneE4" id="route_39"/>
	<route edges="gneE20 gneE21 gneE22 gneE6 gneE28 gneE2 gneE3 gneE4" id="route_40"/>
	<route edges="gneE20 gneE21 gneE22 gneE23 gneE1 gneE2 gneE3 gneE4" id="route_41"/>
	<route edges="gneE20 gneE21 gneE22 gneE23 gneE24" id="route_42"/>
	<route edges="gneE20 -gneE18 gneE26 gneE27 gneE28 gneE29" id="route_43"/>
	<route edges="gneE20 gneE21 gneE11 gneE27 gneE28 gneE29" id="route_44"/>
	<route edges="gneE20 gneE21 gneE22 gneE6 gneE28 gneE29" id="route_45"/>
	<route edges="gneE20 gneE21 gneE22 gneE23 gneE1 gneE29" id="route_46"/>
	<route edges="gneE20 -gneE18 -gneE17 gneE31 gneE32 gneE33 gneE34" id="route_47"/>
	<route edges="gneE20 -gneE18 gneE26 gneE12 gneE32 gneE33 gneE34" id="route_48"/>
	<route edges="gneE20 gneE21 gneE11 gneE12 gneE32 gneE33 gneE34" id="route_49"/>
	<route edges="gneE20 -gneE18 gneE26 gneE27 gneE7 gneE33 gneE34" id="route_50"/>
	<route edges="gneE20 gneE21 gneE11 gneE27 gneE7 gneE33 gneE34" id="route_51"/>
	<route edges="gneE20 gneE21 gneE22 gneE6 gneE7 gneE33 gneE34" id="route_52"/>
	<route edges="gneE20 -gneE18 gneE26 gneE27 gneE28 gneE2 gneE34" id="route_53"/>
	<route edges="gneE20 gneE21 gneE11 gneE27 gneE28 gneE2 gneE34" id="route_54"/>
	<route edges="gneE20 gneE21 gneE22 gneE6 gneE28 gneE2 gneE34" id="route_55"/>
	<route edges="gneE20 gneE21 gneE22 gneE23 gneE1 gneE2 gneE34" id="route_56"/>
	<route edges="gneE20 -gneE18 -gneE17 -gneE16 gneE36 gneE37 gneE38 gneE39" id="route_57"/>
	<route edges="gneE20 -gneE18 -gneE17 gneE31 gneE13 gneE37 gneE38 gneE39" id="route_58"/>
	<route edges="gneE20 -gneE18 gneE26 gneE12 gneE13 gneE37 gneE38 gneE39" id="route_59"/>
	<route edges="gneE20 gneE21 gneE11 gneE12 gneE13 gneE37 gneE38 gneE39" id="route_60"/>
	<route edges="gneE20 -gneE18 -gneE17 gneE31 gneE32 gneE8 gneE38 gneE39" id="route_61"/>
	<route edges="gneE20 -gneE18 gneE26 gneE12 gneE32 gneE8 gneE38 gneE39" id="route_62"/>
	<route edges="gneE20 gneE21 gneE11 gneE12 gneE32 gneE8 gneE38 gneE39" id="route_63"/>
	<route edges="gneE20 -gneE18 gneE26 gneE27 gneE7 gneE8 gneE38 gneE39" id="route_64"/>
	<route edges="gneE20 gneE21 gneE11 gneE27 gneE7 gneE8 gneE38 gneE39" id="route_65"/>
	<route edges="gneE20 gneE21 gneE22 gneE6 gneE7 gneE8 gneE38 gneE39" id="route_66"/>
	<route edges="gneE20 -gneE18 -gneE17 gneE31 gneE32 gneE33 gneE3 gneE39" id="route_67"/>
	<route edges="gneE20 -gneE18 gneE26 gneE12 gneE32 gneE33 gneE3 gneE39" id="route_68"/>
	<route edges="gneE20 gneE21 gneE11 gneE12 gneE32 gneE33 gneE3 gneE39" id="route_69"/>
	<route edges="gneE20 -gneE18 gneE26 gneE27 gneE7 gneE33 gneE3 gneE39" id="route_70"/>
	<route edges="gneE20 gneE21 gneE11 gneE27 gneE7 gneE33 gneE3 gneE39" id="route_71"/>
	<route edges="gneE20 gneE21 gneE22 gneE6 gneE7 gneE33 gneE3 gneE39" id="route_72"/>
	<route edges="gneE20 -gneE18 gneE26 gneE27 gneE28 gneE2 gneE3 gneE39" id="route_73"/>
	<route edges="gneE20 gneE21 gneE11 gneE27 gneE28 gneE2 gneE3 gneE39" id="route_74"/>
	<route edges="gneE20 gneE21 gneE22 gneE6 gneE28 gneE2 gneE3 gneE39" id="route_75"/>
	<route edges="gneE20 gneE21 gneE22 gneE23 gneE1 gneE2 gneE3 gneE39" id="route_76"/>
	<route edges="gneE25 gneE18 -gneE20" id="route_77"/>
	<route edges="gneE25 -gneE17 -gneE30" id="route_78"/>
	<route edges="gneE25 -gneE17 -gneE16 -gneE35" id="route_79"/>
	<route edges="gneE25 gneE18 gneE19" id="route_80"/>
	<route edges="gneE25 -gneE17 -gneE16 -gneE15" id="route_81"/>
	<route edges="gneE25 gneE18 gneE21 -gneE10" id="route_82"/>
	<route edges="gneE25 gneE26 -gneE11 -gneE10" id="route_83"/>
	<route edges="gneE25 -gneE17 -gneE16 gneE36 gneE14" id="route_84"/>
	<route edges="gneE25 -gneE17 gneE31 gneE13 gneE14" id="route_85"/>
	<route edges="gneE25 gneE26 gneE12 gneE13 gneE14" id="route_86"/>
	<route edges="gneE25 gneE18 gneE21 gneE22 -gneE5" id="route_87"/>
	<route edges="gneE25 gneE26 -gneE11 gneE22 -gneE5" id="route_88"/>
	<route edges="gneE25 gneE26 gneE27 -gneE6 -gneE5" id="route_89"/>
	<route edges="gneE25 -gneE17 -gneE16 gneE36 gneE37 gneE9" id="route_90"/>
	<route edges="gneE25 -gneE17 gneE31 gneE13 gneE37 gneE9" id="route_91"/>
	<route edges="gneE25 gneE26 gneE12 gneE13 gneE37 gneE9" id="route_92"/>
	<route edges="gneE25 -gneE17 gneE31 gneE32 gneE8 gneE9" id="route_93"/>
	<route edges="gneE25 gneE26 gneE12 gneE32 gneE8 gneE9" id="route_94"/>
	<route edges="gneE25 gneE26 gneE27 gneE7 gneE8 gneE9" id="route_95"/>
	<route edges="gneE25 gneE18 gneE21 gneE22 gneE23 -gneE0" id="route_96"/>
	<route edges="gneE25 gneE26 -gneE11 gneE22 gneE23 -gneE0" id="route_97"/>
	<route edges="gneE25 gneE26 gneE27 -gneE6 gneE23 -gneE0" id="route_98"/>
	<route edges="gneE25 gneE26 gneE27 gneE28 -gneE1 -gneE0" id="route_99"/>
	<route edges="gneE25 -gneE17 -gneE16 gneE36 gneE37 gneE38 gneE4" id="route_100"/>
	<route edges="gneE25 -gneE17 gneE31 gneE13 gneE37 gneE38 gneE4" id="route_101"/>
	<route edges="gneE25 gneE26 gneE12 gneE13 gneE37 gneE38 gneE4" id="route_102"/>
	<route edges="gneE25 -gneE17 gneE31 gneE32 gneE8 gneE38 gneE4" id="route_103"/>
	<route edges="gneE25 gneE26 gneE12 gneE32 gneE8 gneE38 gneE4" id="route_104"/>
	<route edges="gneE25 gneE26 gneE27 gneE7 gneE8 gneE38 gneE4" id="route_105"/>
	<route edges="gneE25 -gneE17 gneE31 gneE32 gneE33 gneE3 gneE4" id="route_106"/>
	<route edges="gneE25 gneE26 gneE12 gneE32 gneE33 gneE3 gneE4" id="route_107"/>
	<route edges="gneE25 gneE26 gneE27 gneE7 gneE33 gneE3 gneE4" id="route_108"/>
	<route edges="gneE25 gneE26 gneE27 gneE28 gneE2 gneE3 gneE4" id="route_109"/>
	<route edges="gneE25 gneE18 gneE21 gneE22 gneE23 gneE24" id="route_110"/>
	<route edges="gneE25 gneE26 -gneE11 gneE22 gneE23 gneE24" id="route_111"/>
	<route edges="gneE25 gneE26 gneE27 -gneE6 gneE23 gneE24" id="route_112"/>
	<route edges="gneE25 gneE26 gneE27 gneE28 -gneE1 gneE24" id="route_113"/>
	<route edges="gneE25 gneE26 gneE27 gneE28 gneE29" id="route_114"/>
	<route edges="gneE25 -gneE17 gneE31 gneE32 gneE33 gneE34" id="route_115"/>
	<route edges="gneE25 gneE26 gneE12 gneE32 gneE33 gneE34" id="route_116"/>
	<route edges="gneE25 gneE26 gneE27 gneE7 gneE33 gneE34" id="route_117"/>
	<route edges="gneE25 gneE26 gneE27 gneE28 gneE2 gneE34" id="route_118"/>
	<route edges="gneE25 -gneE17 -gneE16 gneE36 gneE37 gneE38 gneE39" id="route_119"/>
	<route edges="gneE25 -gneE17 gneE31 gneE13 gneE37 gneE38 gneE39" id="route_120"/>
	<route edges="gneE25 gneE26 gneE12 gneE13 gneE37 gneE38 gneE39" id="route_121"/>
	<route edges="gneE25 -gneE17 gneE31 gneE32 gneE8 gneE38 gneE39" id="route_122"/>
	<route edges="gneE25 gneE26 gneE12 gneE32 gneE8 gneE38 gneE39" id="route_123"/>
	<route edges="gneE25 gneE26 gneE27 gneE7 gneE8 gneE38 gneE39" id="route_124"/>
	<route edges="gneE25 -gneE17 gneE31 gneE32 gneE33 gneE3 gneE39" id="route_125"/>
	<route edges="gneE25 gneE26 gneE12 gneE32 gneE33 gneE3 gneE39" id="route_126"/>
	<route edges="gneE25 gneE26 gneE27 gneE7 gneE33 gneE3 gneE39" id="route_127"/>
	<route edges="gneE25 gneE26 gneE27 gneE28 gneE2 gneE3 gneE39" id="route_128"/>
	<route edges="gneE30 gneE17 gneE18 -gneE20" id="route_129"/>
	<route edges="gneE30 gneE17 -gneE25" id="route_130"/>
	<route edges="gneE30 -gneE16 -gneE35" id="route_131"/>
	<route edges="gneE30 gneE17 gneE18 gneE19" id="route_132"/>
	<route edges="gneE30 -gneE16 -gneE15" id="route_133"/>
	<route edges="gneE30 gneE17 gneE18 gneE21 -gneE10" id="route_134"/>
	<route edges="gneE30 gneE17 gneE26 -gneE11 -gneE10" id="route_135"/>
	<route edges="gneE30 gneE31 -gneE12 -gneE11 -gneE10" id="route_136"/>
	<route edges="gneE30 -gneE16 gneE36 gneE14" id="route_137"/>
	<route edges="gneE30 gneE31 gneE13 gneE14" id="route_138"/>
	<route edges="gneE30 gneE17 gneE18 gneE21 gneE22 -gneE5" id="route_139"/>
	<route edges="gneE30 gneE17 gneE26 -gneE11 gneE22 -gneE5" id="route_140"/>
	<route edges="gneE30 gneE31 -gneE12 -gneE11 gneE22 -gneE5" id="route_141"/>
	<route edges="gneE30 gneE17 gneE26 gneE27 -gneE6 -gneE5" id="route_142"/>
	<route edges="gneE30 gneE31 -gneE12 gneE27 -gneE6 -gneE5" id="route_143"/>
	<route edges="gneE30 gneE31 gneE32 -gneE7 -gneE6 -gneE5" id="route_144"/>
	<route edges="gneE30 -gneE16 gneE36 gneE37 gneE9" id="route_145"/>
	<route edges="gneE30 gneE31 gneE13 gneE37 gneE9" id="route_146"/>
	<route edges="gneE30 gneE31 gneE32 gneE8 gneE9" id="route_147"/>
	<route edges="gneE30 gneE17 gneE18 gneE21 gneE22 gneE23 -gneE0" id="route_148"/>
	<route edges="gneE30 gneE17 gneE26 -gneE11 gneE22 gneE23 -gneE0" id="route_149"/>
	<route edges="gneE30 gneE31 -gneE12 -gneE11 gneE22 gneE23 -gneE0" id="route_150"/>
	<route edges="gneE30 gneE17 gneE26 gneE27 -gneE6 gneE23 -gneE0" id="route_151"/>
	<route edges="gneE30 gneE31 -gneE12 gneE27 -gneE6 gneE23 -gneE0" id="route_152"/>
	<route edges="gneE30 gneE31 gneE32 -gneE7 -gneE6 gneE23 -gneE0" id="route_153"/>
	<route edges="gneE30 gneE17 gneE26 gneE27 gneE28 -gneE1 -gneE0" id="route_154"/>
	<route edges="gneE30 gneE31 -gneE12 gneE27 gneE28 -gneE1 -gneE0" id="route_155"/>
	<route edges="gneE30 gneE31 gneE32 -gneE7 gneE28 -gneE1 -gneE0" id="route_156"/>
	<route edges="gneE30 gneE31 gneE32 gneE33 -gneE2 -gneE1 -gneE0" id="route_157"/>
	<route edges="gneE30 -gneE16 gneE36 gneE37 gneE38 gneE4" id="route_158"/>
	<route edges="gneE30 gneE31 gneE13 gneE37 gneE38 gneE4" id="route_159"/>
	<route edges="gneE30 gneE31 gneE32 gneE8 gneE38 gneE4" id="route_160"/>
	<route edges="gneE30 gneE31 gneE32 gneE33 gneE3 gneE4" id="route_161"/>
	<route edges="gneE30 gneE17 gneE18 gneE21 gneE22 gneE23 gneE24" id="route_162"/>
	<route edges="gneE30 gneE17 gneE26 -gneE11 gneE22 gneE23 gneE24" id="route_163"/>
	<route edges="gneE30 gneE31 -gneE12 -gneE11 gneE22 gneE23 gneE24" id="route_164"/>
	<route edges="gneE30 gneE17 gneE26 gneE27 -gneE6 gneE23 gneE24" id="route_165"/>
	<route edges="gneE30 gneE31 -gneE12 gneE27 -gneE6 gneE23 gneE24" id="route_166"/>
	<route edges="gneE30 gneE31 gneE32 -gneE7 -gneE6 gneE23 gneE24" id="route_167"/>
	<route edges="gneE30 gneE17 gneE26 gneE27 gneE28 -gneE1 gneE24" id="route_168"/>
	<route edges="gneE30 gneE31 -gneE12 gneE27 gneE28 -gneE1 gneE24" id="route_169"/>
	<route edges="gneE30 gneE31 gneE32 -gneE7 gneE28 -gneE1 gneE24" id="route_170"/>
	<route edges="gneE30 gneE31 gneE32 gneE33 -gneE2 -gneE1 gneE24" id="route_171"/>
	<route edges="gneE30 gneE17 gneE26 gneE27 gneE28 gneE29" id="route_172"/>
	<route edges="gneE30 gneE31 -gneE12 gneE27 gneE28 gneE29" id="route_173"/>
	<route edges="gneE30 gneE31 gneE32 -gneE7 gneE28 gneE29" id="route_174"/>
	<route edges="gneE30 gneE31 gneE32 gneE33 -gneE2 gneE29" id="route_175"/>
	<route edges="gneE30 gneE31 gneE32 gneE33 gneE34" id="route_176"/>
	<route edges="gneE30 -gneE16 gneE36 gneE37 gneE38 gneE39" id="route_177"/>
	<route edges="gneE30 gneE31 gneE13 gneE37 gneE38 gneE39" id="route_178"/>
	<route edges="gneE30 gneE31 gneE32 gneE8 gneE38 gneE39" id="route_179"/>
	<route edges="gneE30 gneE31 gneE32 gneE33 gneE3 gneE39" id="route_180"/>
	<route edges="gneE35 gneE16 gneE17 gneE18 -gneE20" id="route_181"/>
	<route edges="gneE35 gneE16 gneE17 -gneE25" id="route_182"/>
	<route edges="gneE35 gneE16 -gneE30" id="route_183"/>
	<route edges="gneE35 gneE16 gneE17 gneE18 gneE19" id="route_184"/>
	<route edges="gneE35 -gneE15" id="route_185"/>
	<route edges="gneE35 gneE16 gneE17 gneE18 gneE21 -gneE10" id="route_186"/>
	<route edges="gneE35 gneE16 gneE17 gneE26 -gneE11 -gneE10" id="route_187"/>
	<route edges="gneE35 gneE16 gneE31 -gneE12 -gneE11 -gneE10" id="route_188"/>
	<route edges="gneE35 gneE36 -gneE13 -gneE12 -gneE11 -gneE10" id="route_189"/>
	<route edges="gneE35 gneE36 gneE14" id="route_190"/>
	<route edges="gneE35 gneE16 gneE17 gneE18 gneE21 gneE22 -gneE5" id="route_191"/>
	<route edges="gneE35 gneE16 gneE17 gneE26 -gneE11 gneE22 -gneE5" id="route_192"/>
	<route edges="gneE35 gneE16 gneE31 -gneE12 -gneE11 gneE22 -gneE5" id="route_193"/>
	<route edges="gneE35 gneE36 -gneE13 -gneE12 -gneE11 gneE22 -gneE5" id="route_194"/>
	<route edges="gneE35 gneE16 gneE17 gneE26 gneE27 -gneE6 -gneE5" id="route_195"/>
	<route edges="gneE35 gneE16 gneE31 -gneE12 gneE27 -gneE6 -gneE5" id="route_196"/>
	<route edges="gneE35 gneE36 -gneE13 -gneE12 gneE27 -gneE6 -gneE5" id="route_197"/>
	<route edges="gneE35 gneE16 gneE31 gneE32 -gneE7 -gneE6 -gneE5" id="route_198"/>
	<route edges="gneE35 gneE36 -gneE13 gneE32 -gneE7 -gneE6 -gneE5" id="route_199"/>
	<route edges="gneE35 gneE36 gneE37 -gneE8 -gneE7 -gneE6 -gneE5" id="route_200"/>
	<route edges="gneE35 gneE36 gneE37 gneE9" id="route_201"/>
	<route edges="gneE35 gneE16 gneE17 gneE18 gneE21 gneE22 gneE23 -gneE0" id="route_202"/>
	<route edges="gneE35 gneE16 gneE17 gneE26 -gneE11 gneE22 gneE23 -gneE0" id="route_203"/>
	<route edges="gneE35 gneE16 gneE31 -gneE12 -gneE11 gneE22 gneE23 -gneE0" id="route_204"/>
	<route edges="gneE35 gneE36 -gneE13 -gneE12 -gneE11 gneE22 gneE23 -gneE0" id="route_205"/>
	<route edges="gneE35 gneE16 gneE17 gneE26 gneE27 -gneE6 gneE23 -gneE0" id="route_206"/>
	<route edges="gneE35 gneE16 gneE31 -gneE12 gneE27 -gneE6 gneE23 -gneE0" id="route_207"/>
	<route edges="gneE35 gneE36 -gneE13 -gneE12 gneE27 -gneE6 gneE23 -gneE0" id="route_208"/>
	<route edges="gneE35 gneE16 gneE31 gneE32 -gneE7 -gneE6 gneE23 -gneE0" id="route_209"/>
	<route edges="gneE35 gneE36 -gneE13 gneE32 -gneE7 -gneE6 gneE23 -gneE0" id="route_210"/>
	<route edges="gneE35 gneE36 gneE37 -gneE8 -gneE7 -gneE6 gneE23 -gneE0" id="route_211"/>
	<route edges="gneE35 gneE16 gneE17 gneE26 gneE27 gneE28 -gneE1 -gneE0" id="route_212"/>
	<route edges="gneE35 gneE16 gneE31 -gneE12 gneE27 gneE28 -gneE1 -gneE0" id="route_213"/>
	<route edges="gneE35 gneE36 -gneE13 -gneE12 gneE27 gneE28 -gneE1 -gneE0" id="route_214"/>
	<route edges="gneE35 gneE16 gneE31 gneE32 -gneE7 gneE28 -gneE1 -gneE0" id="route_215"/>
	<route edges="gneE35 gneE36 -gneE13 gneE32 -gneE7 gneE28 -gneE1 -gneE0" id="route_216"/>
	<route edges="gneE35 gneE36 gneE37 -gneE8 -gneE7 gneE28 -gneE1 -gneE0" id="route_217"/>
	<route edges="gneE35 gneE16 gneE31 gneE32 gneE33 -gneE2 -gneE1 -gneE0" id="route_218"/>
	<route edges="gneE35 gneE36 -gneE13 gneE32 gneE33 -gneE2 -gneE1 -gneE0" id="route_219"/>
	<route edges="gneE35 gneE36 gneE37 -gneE8 gneE33 -gneE2 -gneE1 -gneE0" id="route_220"/>
	<route edges="gneE35 gneE36 gneE37 gneE38 -gneE3 -gneE2 -gneE1 -gneE0" id="route_221"/>
	<route edges="gneE35 gneE36 gneE37 gneE38 gneE4" id="route_222"/>
	<route edges="gneE35 gneE16 gneE17 gneE18 gneE21 gneE22 gneE23 gneE24" id="route_223"/>
	<route edges="gneE35 gneE16 gneE17 gneE26 -gneE11 gneE22 gneE23 gneE24" id="route_224"/>
	<route edges="gneE35 gneE16 gneE31 -gneE12 -gneE11 gneE22 gneE23 gneE24" id="route_225"/>
	<route edges="gneE35 gneE36 -gneE13 -gneE12 -gneE11 gneE22 gneE23 gneE24" id="route_226"/>
	<route edges="gneE35 gneE16 gneE17 gneE26 gneE27 -gneE6 gneE23 gneE24" id="route_227"/>
	<route edges="gneE35 gneE16 gneE31 -gneE12 gneE27 -gneE6 gneE23 gneE24" id="route_228"/>
	<route edges="gneE35 gneE36 -gneE13 -gneE12 gneE27 -gneE6 gneE23 gneE24" id="route_229"/>
	<route edges="gneE35 gneE16 gneE31 gneE32 -gneE7 -gneE6 gneE23 gneE24" id="route_230"/>
	<route edges="gneE35 gneE36 -gneE13 gneE32 -gneE7 -gneE6 gneE23 gneE24" id="route_231"/>
	<route edges="gneE35 gneE36 gneE37 -gneE8 -gneE7 -gneE6 gneE23 gneE24" id="route_232"/>
	<route edges="gneE35 gneE16 gneE17 gneE26 gneE27 gneE28 -gneE1 gneE24" id="route_233"/>
	<route edges="gneE35 gneE16 gneE31 -gneE12 gneE27 gneE28 -gneE1 gneE24" id="route_234"/>
	<route edges="gneE35 gneE36 -gneE13 -gneE12 gneE27 gneE28 -gneE1 gneE24" id="route_235"/>
	<route edges="gneE35 gneE16 gneE31 gneE32 -gneE7 gneE28 -gneE1 gneE24" id="route_236"/>
	<route edges="gneE35 gneE36 -gneE13 gneE32 -gneE7 gneE28 -gneE1 gneE24" id="route_237"/>
	<route edges="gneE35 gneE36 gneE37 -gneE8 -gneE7 gneE28 -gneE1 gneE24" id="route_238"/>
	<route edges="gneE35 gneE16 gneE31 gneE32 gneE33 -gneE2 -gneE1 gneE24" id="route_239"/>
	<route edges="gneE35 gneE36 -gneE13 gneE32 gneE33 -gneE2 -gneE1 gneE24" id="route_240"/>
	<route edges="gneE35 gneE36 gneE37 -gneE8 gneE33 -gneE2 -gneE1 gneE24" id="route_241"/>
	<route edges="gneE35 gneE36 gneE37 gneE38 -gneE3 -gneE2 -gneE1 gneE24" id="route_242"/>
	<route edges="gneE35 gneE16 gneE17 gneE26 gneE27 gneE28 gneE29" id="route_243"/>
	<route edges="gneE35 gneE16 gneE31 -gneE12 gneE27 gneE28 gneE29" id="route_244"/>
	<route edges="gneE35 gneE36 -gneE13 -gneE12 gneE27 gneE28 gneE29" id="route_245"/>
	<route edges="gneE35 gneE16 gneE31 gneE32 -gneE7 gneE28 gneE29" id="route_246"/>
	<route edges="gneE35 gneE36 -gneE13 gneE32 -gneE7 gneE28 gneE29" id="route_247"/>
	<route edges="gneE35 gneE36 gneE37 -gneE8 -gneE7 gneE28 gneE29" id="route_248"/>
	<route edges="gneE35 gneE16 gneE31 gneE32 gneE33 -gneE2 gneE29" id="route_249"/>
	<route edges="gneE35 gneE36 -gneE13 gneE32 gneE33 -gneE2 gneE29" id="route_250"/>
	<route edges="gneE35 gneE36 gneE37 -gneE8 gneE33 -gneE2 gneE29" id="route_251"/>
	<route edges="gneE35 gneE36 gneE37 gneE38 -gneE3 -gneE2 gneE29" id="route_252"/>
	<route edges="gneE35 gneE16 gneE31 gneE32 gneE33 gneE34" id="route_253"/>
	<route edges="gneE35 gneE36 -gneE13 gneE32 gneE33 gneE34" id="route_254"/>
	<route edges="gneE35 gneE36 gneE37 -gneE8 gneE33 gneE34" id="route_255"/>
	<route edges="gneE35 gneE36 gneE37 gneE38 -gneE3 gneE34" id="route_256"/>
	<route edges="gneE35 gneE36 gneE37 gneE38 gneE39" id="route_257"/>
	<route edges="-gneE19 -gneE20" id="route_258"/>
	<route edges="-gneE19 -gneE18 -gneE25" id="route_259"/>
	<route edges="-gneE19 -gneE18 -gneE17 -gneE30" id="route_260"/>
	<route edges="-gneE19 -gneE18 -gneE17 -gneE16 -gneE35" id="route_261"/>
	<route edges="-gneE19 -gneE18 -gneE17 -gneE16 -gneE15" id="route_262"/>
	<route edges="-gneE19 gneE21 -gneE10" id="route_263"/>
	<route edges="-gneE19 -gneE18 -gneE17 -gneE16 gneE36 gneE14" id="route_264"/>
	<route edges="-gneE19 -gneE18 -gneE17 gneE31 gneE13 gneE14" id="route_265"/>
	<route edges="-gneE19 -gneE18 gneE26 gneE12 gneE13 gneE14" id="route_266"/>
	<route edges="-gneE19 gneE21 gneE11 gneE12 gneE13 gneE14" id="route_267"/>
	<route edges="-gneE19 gneE21 gneE22 -gneE5" id="route_268"/>
	<route edges="-gneE19 -gneE18 -gneE17 -gneE16 gneE36 gneE37 gneE9" id="route_269"/>
	<route edges="-gneE19 -gneE18 -gneE17 gneE31 gneE13 gneE37 gneE9" id="route_270"/>
	<route edges="-gneE19 -gneE18 gneE26 gneE12 gneE13 gneE37 gneE9" id="route_271"/>
	<route edges="-gneE19 gneE21 gneE11 gneE12 gneE13 gneE37 gneE9" id="route_272"/>
	<route edges="-gneE19 -gneE18 -gneE17 gneE31 gneE32 gneE8 gneE9" id="route_273"/>
	<route edges="-gneE19 -gneE18 gneE26 gneE12 gneE32 gneE8 gneE9" id="route_274"/>
	<route edges="-gneE19 gneE21 gneE11 gneE12 gneE32 gneE8 gneE9" id="route_275"/>
	<route edges="-gneE19 -gneE18 gneE26 gneE27 gneE7 gneE8 gneE9" id="route_276"/>
	<route edges="-gneE19 gneE21 gneE11 gneE27 gneE7 gneE8 gneE9" id="route_277"/>
	<route edges="-gneE19 gneE21 gneE22 gneE6 gneE7 gneE8 gneE9" id="route_278"/>
	<route edges="-gneE19 gneE21 gneE22 gneE23 -gneE0" id="route_279"/>
	<route edges="-gneE19 -gneE18 -gneE17 -gneE16 gneE36 gneE37 gneE38 gneE4" id="route_280"/>
	<route edges="-gneE19 -gneE18 -gneE17 gneE31 gneE13 gneE37 gneE38 gneE4" id="route_281"/>
	<route edges="-gneE19 -gneE18 gneE26 gneE12 gneE13 gneE37 gneE38 gneE4" id="route_282"/>
	<route edges="-gneE19 gneE21 gneE11 gneE12 gneE13 gneE37 gneE38 gneE4" id="route_283"/>
	<route edges="-gneE19 -gneE18 -gneE17 gneE31 gneE32 gneE8 gneE38 gneE4" id="route_284"/>
	<route edges="-gneE19 -gneE18 gneE26 gneE12 gneE32 gneE8 gneE38 gneE4" id="route_285"/>
	<route edges="-gneE19 gneE21 gneE11 gneE12 gneE32 gneE8 gneE38 gneE4" id="route_286"/>
	<route edges="-gneE19 -gneE18 gneE26 gneE27 gneE7 gneE8 gneE38 gneE4" id="route_287"/>
	<route edges="-gneE19 gneE21 gneE11 gneE27 gneE7 gneE8 gneE38 gneE4" id="route_288"/>
	<route edges="-gneE19 gneE21 gneE22 gneE6 gneE7 gneE8 gneE38 gneE4" id="route_289"/>
	<route edges="-gneE19 -gneE18 -gneE17 gneE31 gneE32 gneE33 gneE3 gneE4" id="route_290"/>
	<route edges="-gneE19 -gneE18 gneE26 gneE12 gneE32 gneE33 gneE3 gneE4" id="route_291"/>
	<route edges="-gneE19 gneE21 gneE11 gneE12 gneE32 gneE33 gneE3 gneE4" id="route_292"/>
	<route edges="-gneE19 -gneE18 gneE26 gneE27 gneE7 gneE33 gneE3 gneE4" id="route_293"/>
	<route edges="-gneE19 gneE21 gneE11 gneE27 gneE7 gneE33 gneE3 gneE4" id="route_294"/>
	<route edges="-gneE19 gneE21 gneE22 gneE6 gneE7 gneE33 gneE3 gneE4" id="route_295"/>
	<route edges="-gneE19 -gneE18 gneE26 gneE27 gneE28 gneE2 gneE3 gneE4" id="route_296"/>
	<route edges="-gneE19 gneE21 gneE11 gneE27 gneE28 gneE2 gneE3 gneE4" id="route_297"/>
	<route edges="-gneE19 gneE21 gneE22 gneE6 gneE28 gneE2 gneE3 gneE4" id="route_298"/>
	<route edges="-gneE19 gneE21 gneE22 gneE23 gneE1 gneE2 gneE3 gneE4" id="route_299"/>
	<route edges="-gneE19 gneE21 gneE22 gneE23 gneE24" id="route_300"/>
	<route edges="-gneE19 -gneE18 gneE26 gneE27 gneE28 gneE29" id="route_301"/>
	<route edges="-gneE19 gneE21 gneE11 gneE27 gneE28 gneE29" id="route_302"/>
	<route edges="-gneE19 gneE21 gneE22 gneE6 gneE28 gneE29" id="route_303"/>
	<route edges="-gneE19 gneE21 gneE22 gneE23 gneE1 gneE29" id="route_304"/>
	<route edges="-gneE19 -gneE18 -gneE17 gneE31 gneE32 gneE33 gneE34" id="route_305"/>
	<route edges="-gneE19 -gneE18 gneE26 gneE12 gneE32 gneE33 gneE34" id="route_306"/>
	<route edges="-gneE19 gneE21 gneE11 gneE12 gneE32 gneE33 gneE34" id="route_307"/>
	<route edges="-gneE19 -gneE18 gneE26 gneE27 gneE7 gneE33 gneE34" id="route_308"/>
	<route edges="-gneE19 gneE21 gneE11 gneE27 gneE7 gneE33 gneE34" id="route_309"/>
	<route edges="-gneE19 gneE21 gneE22 gneE6 gneE7 gneE33 gneE34" id="route_310"/>
	<route edges="-gneE19 -gneE18 gneE26 gneE27 gneE28 gneE2 gneE34" id="route_311"/>
	<route edges="-gneE19 gneE21 gneE11 gneE27 gneE28 gneE2 gneE34" id="route_312"/>
	<route edges="-gneE19 gneE21 gneE22 gneE6 gneE28 gneE2 gneE34" id="route_313"/>
	<route edges="-gneE19 gneE21 gneE22 gneE23 gneE1 gneE2 gneE34" id="route_314"/>
	<route edges="-gneE19 -gneE18 -gneE17 -gneE16 gneE36 gneE37 gneE38 gneE39" id="route_315"/>
	<route edges="-gneE19 -gneE18 -gneE17 gneE31 gneE13 gneE37 gneE38 gneE39" id="route_316"/>
	<route edges="-gneE19 -gneE18 gneE26 gneE12 gneE13 gneE37 gneE38 gneE39" id="route_317"/>
	<route edges="-gneE19 gneE21 gneE11 gneE12 gneE13 gneE37 gneE38 gneE39" id="route_318"/>
	<route edges="-gneE19 -gneE18 -gneE17 gneE31 gneE32 gneE8 gneE38 gneE39" id="route_319"/>
	<route edges="-gneE19 -gneE18 gneE26 gneE12 gneE32 gneE8 gneE38 gneE39" id="route_320"/>
	<route edges="-gneE19 gneE21 gneE11 gneE12 gneE32 gneE8 gneE38 gneE39" id="route_321"/>
	<route edges="-gneE19 -gneE18 gneE26 gneE27 gneE7 gneE8 gneE38 gneE39" id="route_322"/>
	<route edges="-gneE19 gneE21 gneE11 gneE27 gneE7 gneE8 gneE38 gneE39" id="route_323"/>
	<route edges="-gneE19 gneE21 gneE22 gneE6 gneE7 gneE8 gneE38 gneE39" id="route_324"/>
	<route edges="-gneE19 -gneE18 -gneE17 gneE31 gneE32 gneE33 gneE3 gneE39" id="route_325"/>
	<route edges="-gneE19 -gneE18 gneE26 gneE12 gneE32 gneE33 gneE3 gneE39" id="route_326"/>
	<route edges="-gneE19 gneE21 gneE11 gneE12 gneE32 gneE33 gneE3 gneE39" id="route_327"/>
	<route edges="-gneE19 -gneE18 gneE26 gneE27 gneE7 gneE33 gneE3 gneE39" id="route_328"/>
	<route edges="-gneE19 gneE21 gneE11 gneE27 gneE7 gneE33 gneE3 gneE39" id="route_329"/>
	<route edges="-gneE19 gneE21 gneE22 gneE6 gneE7 gneE33 gneE3 gneE39" id="route_330"/>
	<route edges="-gneE19 -gneE18 gneE26 gneE27 gneE28 gneE2 gneE3 gneE39" id="route_331"/>
	<route edges="-gneE19 gneE21 gneE11 gneE27 gneE28 gneE2 gneE3 gneE39" id="route_332"/>
	<route edges="-gneE19 gneE21 gneE22 gneE6 gneE28 gneE2 gneE3 gneE39" id="route_333"/>
	<route edges="-gneE19 gneE21 gneE22 gneE23 gneE1 gneE2 gneE3 gneE39" id="route_334"/>
	<route edges="gneE15 gneE16 gneE17 gneE18 -gneE20" id="route_335"/>
	<route edges="gneE15 gneE16 gneE17 -gneE25" id="route_336"/>
	<route edges="gneE15 gneE16 -gneE30" id="route_337"/>
	<route edges="gneE15 -gneE35" id="route_338"/>
	<route edges="gneE15 gneE16 gneE17 gneE18 gneE19" id="route_339"/>
	<route edges="gneE15 gneE16 gneE17 gneE18 gneE21 -gneE10" id="route_340"/>
	<route edges="gneE15 gneE16 gneE17 gneE26 -gneE11 -gneE10" id="route_341"/>
	<route edges="gneE15 gneE16 gneE31 -gneE12 -gneE11 -gneE10" id="route_342"/>
	<route edges="gneE15 gneE36 -gneE13 -gneE12 -gneE11 -gneE10" id="route_343"/>
	<route edges="gneE15 gneE36 gneE14" id="route_344"/>
	<route edges="gneE15 gneE16 gneE17 gneE18 gneE21 gneE22 -gneE5" id="route_345"/>
	<route edges="gneE15 gneE16 gneE17 gneE26 -gneE11 gneE22 -gneE5" id="route_346"/>
	<route edges="gneE15 gneE16 gneE31 -gneE12 -gneE11 gneE22 -gneE5" id="route_347"/>
	<route edges="gneE15 gneE36 -gneE13 -gneE12 -gneE11 gneE22 -gneE5" id="route_348"/>
	<route edges="gneE15 gneE16 gneE17 gneE26 gneE27 -gneE6 -gneE5" id="route_349"/>
	<route edges="gneE15 gneE16 gneE31 -gneE12 gneE27 -gneE6 -gneE5" id="route_350"/>
	<route edges="gneE15 gneE36 -gneE13 -gneE12 gneE27 -gneE6 -gneE5" id="route_351"/>
	<route edges="gneE15 gneE16 gneE31 gneE32 -gneE7 -gneE6 -gneE5" id="route_352"/>
	<route edges="gneE15 gneE36 -gneE13 gneE32 -gneE7 -gneE6 -gneE5" id="route_353"/>
	<route edges="gneE15 gneE36 gneE37 -gneE8 -gneE7 -gneE6 -gneE5" id="route_354"/>
	<route edges="gneE15 gneE36 gneE37 gneE9" id="route_355"/>
	<route edges="gneE15 gneE16 gneE17 gneE18 gneE21 gneE22 gneE23 -gneE0" id="route_356"/>
	<route edges="gneE15 gneE16 gneE17 gneE26 -gneE11 gneE22 gneE23 -gneE0" id="route_357"/>
	<route edges="gneE15 gneE16 gneE31 -gneE12 -gneE11 gneE22 gneE23 -gneE0" id="route_358"/>
	<route edges="gneE15 gneE36 -gneE13 -gneE12 -gneE11 gneE22 gneE23 -gneE0" id="route_359"/>
	<route edges="gneE15 gneE16 gneE17 gneE26 gneE27 -gneE6 gneE23 -gneE0" id="route_360"/>
	<route edges="gneE15 gneE16 gneE31 -gneE12 gneE27 -gneE6 gneE23 -gneE0" id="route_361"/>
	<route edges="gneE15 gneE36 -gneE13 -gneE12 gneE27 -gneE6 gneE23 -gneE0" id="route_362"/>
	<route edges="gneE15 gneE16 gneE31 gneE32 -gneE7 -gneE6 gneE23 -gneE0" id="route_363"/>
	<route edges="gneE15 gneE36 -gneE13 gneE32 -gneE7 -gneE6 gneE23 -gneE0" id="route_364"/>
	<route edges="gneE15 gneE36 gneE37 -gneE8 -gneE7 -gneE6 gneE23 -gneE0" id="route_365"/>
	<route edges="gneE15 gneE16 gneE17 gneE26 gneE27 gneE28 -gneE1 -gneE0" id="route_366"/>
	<route edges="gneE15 gneE16 gneE31 -gneE12 gneE27 gneE28 -gneE1 -gneE0" id="route_367"/>
	<route edges="gneE15 gneE36 -gneE13 -gneE12 gneE27 gneE28 -gneE1 -gneE0" id="route_368"/>
	<route edges="gneE15 gneE16 gneE31 gneE32 -gneE7 gneE28 -gneE1 -gneE0" id="route_369"/>
	<route edges="gneE15 gneE36 -gneE13 gneE32 -gneE7 gneE28 -gneE1 -gneE0" id="route_370"/>
	<route edges="gneE15 gneE36 gneE37 -gneE8 -gneE7 gneE28 -gneE1 -gneE0" id="route_371"/>
	<route edges="gneE15 gneE16 gneE31 gneE32 gneE33 -gneE2 -gneE1 -gneE0" id="route_372"/>